<routes>
<vType accel="2.5" decel="5.0" id="Car" length="5.0" maxSpeed="40" sigma="0.0"/>
<vType accel="1.5" decel="4.0" id="Bus" length="18.0" maxSpeed="25" sigma="0.0"/>
<route id="r1" edges="edge1 edge2 edge3 edge4 edge5"/>
<vehicle depart="0" route="r1" id="1" type="Bus"/>
<vehicle depart="0" route="r1" id="4" type="Bus"/>
<vehicle depart="0" route="r1" id="7" type="Car"/>
<vehicle depart="0" route="r1" id="8" type="Bus"/>
<vehicle depart="0" route="r1" id="9" type="Bus"/>
<vehicle depart="0" route="r1" id="10" type="Car"/>
<vehicle depart="0" route="r1" id="13" type="Bus"/>
<vehicle depart="0" route="r1" id="14" type="Car"/>
<vehicle depart="0" route="r1" id="16" type="Car"/>
<vehicle depart="0" route="r1" id="17" type="Car"/>
<vehicle depart="0" route="r1" id="18" type="Car"/>
<vehicle depart="0" route="r1" id="19" type="Bus"/>
<vehicle depart="0" route="r1" id="20" type="Car"/>
<vehicle depart="0" route="r1" id="21" type="Car"/>
<vehicle depart="0" route="r1" id="22" type="Car"/>
<vehicle depart="0" route="r1" id="23" type="Car"/>
<vehicle depart="0" route="r1" id="25" type="Car"/>
<vehicle depart="0" route="r1" id="27" type="Car"/>
<vehicle depart="0" route="r1" id="30" type="Car"/>
<vehicle depart="0" route="r1" id="32" type="Car"/>
<vehicle depart="0" route="r1" id="35" type="Bus"/>
<vehicle depart="0" route="r1" id="37" type="Car"/>
<vehicle depart="0" route="r1" id="38" type="Car"/>
<vehicle depart="0" route="r1" id="40" type="Car"/>
<vehicle depart="0" route="r1" id="41" type="Car"/>
<vehicle depart="0" route="r1" id="42" type="Car"/>
<vehicle depart="0" route="r1" id="43" type="Car"/>
<vehicle depart="0" route="r1" id="45" type="Car"/>
<vehicle depart="0" route="r1" id="46" type="Car"/>
<vehicle depart="0" route="r1" id="52" type="Bus"/>
<vehicle depart="0" route="r1" id="53" type="Car"/>
<vehicle depart="0" route="r1" id="55" type="Car"/>
<vehicle depart="0" route="r1" id="59" type="Car"/>
<vehicle depart="0" route="r1" id="64" type="Car"/>
<vehicle depart="0" route="r1" id="65" type="Car"/>
<vehicle depart="0" route="r1" id="67" type="Car"/>
<vehicle depart="0" route="r1" id="69" type="Car"/>
<vehicle depart="0" route="r1" id="71" type="Car"/>
<vehicle depart="0" route="r1" id="74" type="Car"/>
<vehicle depart="0" route="r1" id="76" type="Car"/>
<vehicle depart="0" route="r1" id="80" type="Bus"/>
<vehicle depart="0" route="r1" id="81" type="Car"/>
<vehicle depart="0" route="r1" id="82" type="Bus"/>
<vehicle depart="0" route="r1" id="86" type="Bus"/>
<vehicle depart="0" route="r1" id="87" type="Bus"/>
<vehicle depart="0" route="r1" id="89" type="Car"/>
<vehicle depart="0" route="r1" id="91" type="Car"/>
<vehicle depart="0" route="r1" id="93" type="Car"/>
<vehicle depart="0" route="r1" id="97" type="Car"/>
<vehicle depart="0" route="r1" id="99" type="Car"/>
<vehicle depart="1" route="r1" id="0" type="Car"/>
<vehicle depart="1" route="r1" id="2" type="Car"/>
<vehicle depart="1" route="r1" id="6" type="Car"/>
<vehicle depart="1" route="r1" id="11" type="Car"/>
<vehicle depart="1" route="r1" id="12" type="Bus"/>
<vehicle depart="1" route="r1" id="29" type="Car"/>
<vehicle depart="1" route="r1" id="33" type="Car"/>
<vehicle depart="1" route="r1" id="34" type="Bus"/>
<vehicle depart="1" route="r1" id="36" type="Car"/>
<vehicle depart="1" route="r1" id="44" type="Car"/>
<vehicle depart="1" route="r1" id="47" type="Bus"/>
<vehicle depart="1" route="r1" id="49" type="Bus"/>
<vehicle depart="1" route="r1" id="50" type="Car"/>
<vehicle depart="1" route="r1" id="51" type="Car"/>
<vehicle depart="1" route="r1" id="54" type="Bus"/>
<vehicle depart="1" route="r1" id="56" type="Car"/>
<vehicle depart="1" route="r1" id="57" type="Car"/>
<vehicle depart="1" route="r1" id="58" type="Bus"/>
<vehicle depart="1" route="r1" id="60" type="Car"/>
<vehicle depart="1" route="r1" id="61" type="Bus"/>
<vehicle depart="1" route="r1" id="62" type="Bus"/>
<vehicle depart="1" route="r1" id="63" type="Bus"/>
<vehicle depart="1" route="r1" id="66" type="Car"/>
<vehicle depart="1" route="r1" id="68" type="Bus"/>
<vehicle depart="1" route="r1" id="72" type="Bus"/>
<vehicle depart="1" route="r1" id="73" type="Car"/>
<vehicle depart="1" route="r1" id="75" type="Car"/>
<vehicle depart="1" route="r1" id="77" type="Car"/>
<vehicle depart="1" route="r1" id="79" type="Car"/>
<vehicle depart="1" route="r1" id="83" type="Car"/>
<vehicle depart="1" route="r1" id="84" type="Car"/>
<vehicle depart="1" route="r1" id="85" type="Bus"/>
<vehicle depart="1" route="r1" id="90" type="Car"/>
<vehicle depart="1" route="r1" id="92" type="Car"/>
<vehicle depart="2" route="r1" id="3" type="Car"/>
<vehicle depart="2" route="r1" id="5" type="Bus"/>
<vehicle depart="2" route="r1" id="15" type="Bus"/>
<vehicle depart="2" route="r1" id="26" type="Bus"/>
<vehicle depart="2" route="r1" id="28" type="Car"/>
<vehicle depart="2" route="r1" id="95" type="Bus"/>
<vehicle depart="2" route="r1" id="96" type="Bus"/>
<vehicle depart="2" route="r1" id="98" type="Car"/>
<vehicle depart="2" route="r1" id="100" type="Car"/>
<vehicle depart="3" route="r1" id="24" type="Car"/>
<vehicle depart="3" route="r1" id="31" type="Car"/>
<vehicle depart="3" route="r1" id="70" type="Bus"/>
<vehicle depart="3" route="r1" id="78" type="Car"/>
<vehicle depart="3" route="r1" id="88" type="Car"/>
<vehicle depart="3" route="r1" id="94" type="Car"/>
<vehicle depart="4" route="r1" id="39" type="Bus"/>
<vehicle depart="4" route="r1" id="48" type="Car"/>
</routes>