<additional>
   <!-- <inductionLoop id="detecor1" lane="edge2_0" pos="0" period="300"
   file="detector_output.xml" friendlyPos="true"/> -->
     <inductionLoop id="detecor_edge2_0" lane="edge2_0" pos="500" period="300"
   file="detector_output_1.xml" friendlyPos="true"/>
   <inductionLoop id="detecor_edge2_1" lane="edge2_1" pos="500" period="300"
   file="detector_output_2.xml" friendlyPos="true"/>
   <inductionLoop id="detecor_edge2_2" lane="edge2_2" pos="500" period="300"
   file="detector_output_3.xml" friendlyPos="true"/>
   <inductionLoop id="detecor_edge3_0" lane="edge3_0" pos="500" period="300"
   file="detector_output_4.xml" friendlyPos="true"/>
  <inductionLoop id="detecor_edge3_1" lane="edge3_1" pos="500" period="300"
   file="detector_output_5.xml" friendlyPos="true"/>
    <inductionLoop id="detecor_edge3_2" lane="edge3_2" pos="500" period="300"
   file="detector_output_6.xml" friendlyPos="true"/>
    <inductionLoop id="detecor_edge4_0" lane="edge4_0" pos="500" period="300"
file="detector_output_7.xml" friendlyPos="true"/>
    <inductionLoop id="detecor_edge4_1" lane="edge4_1" pos="500" period="300"
file="detector_output_8.xml" friendlyPos="true"/>
    <inductionLoop id="detecor_edge4_2" lane="edge4_2" pos="500" period="300"
   file="detector_output_9.xml" friendlyPos="true"/>
      <inductionLoop id="detecor_edge5_0" lane="edge5_0" pos="500" period="300"
   file="detector_output_10.xml" friendlyPos="true"/>
   <inductionLoop id="detecor_edge5_1" lane="edge5_1" pos="500" period="300"
   file="detector_output_11.xml" friendlyPos="true"/>
   <inductionLoop id="detecor_edge5_2" lane="edge5_2" pos="500" period="300"
   file="detector_output_12.xml" friendlyPos="true"/>
    <rerouter id="rerouter1" edges="edge4">
        <interval begin="2100" end="3300"> <!-- after the 300 warmup steps, 30 min after start to 10 min before the end -->
            <!-- Assuming the rightmost lane has index 0 -->
            <closingLaneReroute id="edge4_0"/>
            <closingLaneReroute id="edge4_1"/>            
            <!-- Set speed limit for the entire edge -->
            <speedLimitReroute id="edge4" speed="8.33"/>
        </interval>
    </rerouter>
</additional>