<routes>
<vType accel="2.5" decel="5.0" id="Car" length="5.0" maxSpeed="40" sigma="0.0"/>
<vType accel="1.5" decel="4.0" id="Bus" length="18.0" maxSpeed="25" sigma="0.0"/>
<route id="r1" edges="edge1 edge2 edge3 edge4 edge5"/>
<vehicle depart="0.08352908959255217" route="r1" id="0" type="Car"/>
<vehicle depart="0.6366453633912175" route="r1" id="1" type="Bus"/>
<vehicle depart="1.0513920414616302" route="r1" id="2" type="Car"/>
<vehicle depart="1.0931800296000433" route="r1" id="3" type="Car"/>
<vehicle depart="2.092882723558743" route="r1" id="4" type="Car"/>
<vehicle depart="2.69675694687069" route="r1" id="5" type="Car"/>
<vehicle depart="3.0566699638110473" route="r1" id="6" type="Car"/>
<vehicle depart="4.153485143999548" route="r1" id="7" type="Car"/>
<vehicle depart="4.912082815857278" route="r1" id="8" type="Car"/>
<vehicle depart="7.084294245454187" route="r1" id="9" type="Bus"/>
<vehicle depart="9.792952031365292" route="r1" id="10" type="Car"/>
<vehicle depart="10.567567569101714" route="r1" id="11" type="Bus"/>
<vehicle depart="12.497590558067452" route="r1" id="12" type="Bus"/>
<vehicle depart="12.626616245405476" route="r1" id="13" type="Car"/>
<vehicle depart="13.148739635042551" route="r1" id="14" type="Car"/>
<vehicle depart="13.745953256806068" route="r1" id="15" type="Car"/>
<vehicle depart="15.88746338783424" route="r1" id="16" type="Car"/>
<vehicle depart="18.26666194414351" route="r1" id="17" type="Car"/>
<vehicle depart="18.38413432271664" route="r1" id="18" type="Bus"/>
<vehicle depart="19.366640161361058" route="r1" id="19" type="Car"/>
<vehicle depart="19.563271602225843" route="r1" id="20" type="Car"/>
<vehicle depart="19.89317537431439" route="r1" id="21" type="Car"/>
<vehicle depart="20.212108547163044" route="r1" id="22" type="Car"/>
<vehicle depart="21.29045808277993" route="r1" id="23" type="Bus"/>
<vehicle depart="22.524815326896785" route="r1" id="24" type="Bus"/>
<vehicle depart="23.50556778550014" route="r1" id="25" type="Bus"/>
<vehicle depart="23.960469467799413" route="r1" id="26" type="Bus"/>
<vehicle depart="25.325702142289035" route="r1" id="27" type="Car"/>
<vehicle depart="25.547158378877636" route="r1" id="28" type="Car"/>
<vehicle depart="26.709086950711132" route="r1" id="29" type="Car"/>
<vehicle depart="27.338643063714066" route="r1" id="30" type="Car"/>
<vehicle depart="28.613690194628056" route="r1" id="31" type="Bus"/>
<vehicle depart="28.928418577134895" route="r1" id="32" type="Car"/>
<vehicle depart="30.325365392199444" route="r1" id="33" type="Car"/>
<vehicle depart="30.69340252824881" route="r1" id="34" type="Bus"/>
<vehicle depart="32.70484898049083" route="r1" id="35" type="Car"/>
<vehicle depart="34.150232026805455" route="r1" id="36" type="Car"/>
<vehicle depart="34.52151792591348" route="r1" id="37" type="Car"/>
<vehicle depart="36.42461405921377" route="r1" id="38" type="Car"/>
<vehicle depart="37.32369774696631" route="r1" id="39" type="Car"/>
<vehicle depart="37.3979923973409" route="r1" id="40" type="Car"/>
<vehicle depart="37.521101640135306" route="r1" id="41" type="Car"/>
<vehicle depart="37.84263323037617" route="r1" id="42" type="Bus"/>
<vehicle depart="38.58816325724776" route="r1" id="43" type="Car"/>
<vehicle depart="40.589970777983886" route="r1" id="44" type="Car"/>
<vehicle depart="42.063934130000526" route="r1" id="45" type="Car"/>
<vehicle depart="45.072724361684564" route="r1" id="46" type="Car"/>
<vehicle depart="45.26246235379325" route="r1" id="47" type="Bus"/>
<vehicle depart="46.341212511426725" route="r1" id="48" type="Bus"/>
<vehicle depart="46.80404217077411" route="r1" id="49" type="Car"/>
<vehicle depart="47.29168722019786" route="r1" id="50" type="Car"/>
<vehicle depart="47.45373189752281" route="r1" id="51" type="Car"/>
<vehicle depart="48.02982582393594" route="r1" id="52" type="Bus"/>
<vehicle depart="48.48743758260682" route="r1" id="53" type="Car"/>
<vehicle depart="48.48788310235169" route="r1" id="54" type="Bus"/>
<vehicle depart="50.97696685946825" route="r1" id="55" type="Car"/>
<vehicle depart="51.75220672468248" route="r1" id="56" type="Bus"/>
<vehicle depart="52.655150225676614" route="r1" id="57" type="Bus"/>
<vehicle depart="57.2886570827517" route="r1" id="58" type="Car"/>
<vehicle depart="57.85843545500203" route="r1" id="59" type="Car"/>
<vehicle depart="58.309987286361526" route="r1" id="60" type="Car"/>
<vehicle depart="58.84894260919437" route="r1" id="61" type="Bus"/>
<vehicle depart="59.7836702874851" route="r1" id="62" type="Car"/>
<vehicle depart="60.03575060707213" route="r1" id="63" type="Car"/>
<vehicle depart="60.65462465514607" route="r1" id="64" type="Car"/>
<vehicle depart="63.230464999789646" route="r1" id="65" type="Car"/>
<vehicle depart="64.28000394605395" route="r1" id="66" type="Car"/>
<vehicle depart="65.75528016808634" route="r1" id="67" type="Bus"/>
<vehicle depart="67.24224827598964" route="r1" id="68" type="Car"/>
<vehicle depart="67.93234366343262" route="r1" id="69" type="Car"/>
<vehicle depart="67.97784341023966" route="r1" id="70" type="Bus"/>
<vehicle depart="69.13797864772273" route="r1" id="71" type="Car"/>
<vehicle depart="69.53133603688077" route="r1" id="72" type="Car"/>
<vehicle depart="70.92794440814194" route="r1" id="73" type="Car"/>
<vehicle depart="71.75880521145608" route="r1" id="74" type="Car"/>
<vehicle depart="72.40055081299069" route="r1" id="75" type="Car"/>
<vehicle depart="72.56563225619529" route="r1" id="76" type="Car"/>
<vehicle depart="74.99599481172066" route="r1" id="77" type="Car"/>
<vehicle depart="75.34344579972847" route="r1" id="78" type="Car"/>
<vehicle depart="75.43684790611341" route="r1" id="79" type="Car"/>
<vehicle depart="75.74272992895045" route="r1" id="80" type="Car"/>
<vehicle depart="76.95121582645419" route="r1" id="81" type="Car"/>
<vehicle depart="79.72170629981439" route="r1" id="82" type="Car"/>
<vehicle depart="79.81797029838778" route="r1" id="83" type="Car"/>
<vehicle depart="82.3741613804347" route="r1" id="84" type="Bus"/>
<vehicle depart="82.83802090380573" route="r1" id="85" type="Car"/>
<vehicle depart="83.44853961063161" route="r1" id="86" type="Car"/>
<vehicle depart="84.22294655202867" route="r1" id="87" type="Bus"/>
<vehicle depart="84.86202114303599" route="r1" id="88" type="Bus"/>
<vehicle depart="85.09635051314041" route="r1" id="89" type="Car"/>
<vehicle depart="85.25580574511747" route="r1" id="90" type="Bus"/>
<vehicle depart="86.32817481757407" route="r1" id="91" type="Car"/>
<vehicle depart="87.15294558232974" route="r1" id="92" type="Car"/>
<vehicle depart="89.99171878841119" route="r1" id="93" type="Bus"/>
<vehicle depart="89.99220275070078" route="r1" id="94" type="Car"/>
<vehicle depart="90.01313381384664" route="r1" id="95" type="Car"/>
<vehicle depart="91.42435560488855" route="r1" id="96" type="Bus"/>
<vehicle depart="91.47294117780342" route="r1" id="97" type="Bus"/>
<vehicle depart="94.21883958821513" route="r1" id="98" type="Car"/>
<vehicle depart="94.59439845350009" route="r1" id="99" type="Bus"/>
<vehicle depart="94.79443294984357" route="r1" id="100" type="Car"/>
<vehicle depart="96.20028881062464" route="r1" id="101" type="Bus"/>
<vehicle depart="96.91716644265321" route="r1" id="102" type="Car"/>
<vehicle depart="97.72650572229297" route="r1" id="103" type="Car"/>
<vehicle depart="97.87687928900137" route="r1" id="104" type="Car"/>
<vehicle depart="99.89417589017643" route="r1" id="105" type="Car"/>
<vehicle depart="101.50745345248723" route="r1" id="106" type="Bus"/>
<vehicle depart="102.4780756813661" route="r1" id="107" type="Car"/>
<vehicle depart="103.84689063863608" route="r1" id="108" type="Bus"/>
<vehicle depart="105.68115283025776" route="r1" id="109" type="Bus"/>
<vehicle depart="106.49161646548832" route="r1" id="110" type="Car"/>
<vehicle depart="106.55580733329325" route="r1" id="111" type="Car"/>
<vehicle depart="107.51696638784536" route="r1" id="112" type="Bus"/>
<vehicle depart="108.41718032834798" route="r1" id="113" type="Car"/>
<vehicle depart="109.22905009446092" route="r1" id="114" type="Bus"/>
<vehicle depart="109.59507438939261" route="r1" id="115" type="Car"/>
<vehicle depart="111.08757716824167" route="r1" id="116" type="Car"/>
<vehicle depart="111.34323593324625" route="r1" id="117" type="Car"/>
<vehicle depart="112.21258354489566" route="r1" id="118" type="Car"/>
<vehicle depart="113.14151042600888" route="r1" id="119" type="Car"/>
<vehicle depart="113.75153587561465" route="r1" id="120" type="Car"/>
<vehicle depart="115.05614135569817" route="r1" id="121" type="Car"/>
<vehicle depart="116.51905950049841" route="r1" id="122" type="Car"/>
<vehicle depart="118.55068650096021" route="r1" id="123" type="Bus"/>
<vehicle depart="118.80090916779602" route="r1" id="124" type="Bus"/>
<vehicle depart="123.67495979290672" route="r1" id="125" type="Car"/>
<vehicle depart="124.70677530280778" route="r1" id="126" type="Car"/>
<vehicle depart="129.99178495034482" route="r1" id="127" type="Bus"/>
<vehicle depart="130.2841684627079" route="r1" id="128" type="Bus"/>
<vehicle depart="131.42697694383673" route="r1" id="129" type="Bus"/>
<vehicle depart="132.46393831792844" route="r1" id="130" type="Bus"/>
<vehicle depart="135.07917000336658" route="r1" id="131" type="Car"/>
<vehicle depart="136.23464880012688" route="r1" id="132" type="Car"/>
<vehicle depart="136.2956131838288" route="r1" id="133" type="Car"/>
<vehicle depart="136.65907588379062" route="r1" id="134" type="Car"/>
<vehicle depart="136.83144886150717" route="r1" id="135" type="Car"/>
<vehicle depart="137.31971243332686" route="r1" id="136" type="Car"/>
<vehicle depart="138.8280212084078" route="r1" id="137" type="Car"/>
<vehicle depart="139.67392361046825" route="r1" id="138" type="Car"/>
<vehicle depart="140.01184152647707" route="r1" id="139" type="Car"/>
<vehicle depart="141.86273551083386" route="r1" id="140" type="Bus"/>
<vehicle depart="142.49309382024396" route="r1" id="141" type="Car"/>
<vehicle depart="142.76871245937275" route="r1" id="142" type="Bus"/>
<vehicle depart="145.260266480579" route="r1" id="143" type="Bus"/>
<vehicle depart="146.6635060902973" route="r1" id="144" type="Car"/>
<vehicle depart="147.05532122866865" route="r1" id="145" type="Car"/>
<vehicle depart="147.657663095617" route="r1" id="146" type="Car"/>
<vehicle depart="150.32431245482007" route="r1" id="147" type="Bus"/>
<vehicle depart="150.92596267803108" route="r1" id="148" type="Car"/>
<vehicle depart="151.34212141974652" route="r1" id="149" type="Car"/>
<vehicle depart="151.80760628385323" route="r1" id="150" type="Car"/>
<vehicle depart="156.88767997696834" route="r1" id="151" type="Car"/>
<vehicle depart="158.49932583497377" route="r1" id="152" type="Car"/>
<vehicle depart="159.3235440811071" route="r1" id="153" type="Bus"/>
<vehicle depart="160.9669186333709" route="r1" id="154" type="Bus"/>
<vehicle depart="162.6563783813954" route="r1" id="155" type="Car"/>
<vehicle depart="164.45675613368834" route="r1" id="156" type="Car"/>
<vehicle depart="164.97701590161753" route="r1" id="157" type="Car"/>
<vehicle depart="168.15756791789556" route="r1" id="158" type="Bus"/>
<vehicle depart="168.9666787750696" route="r1" id="159" type="Car"/>
<vehicle depart="169.76609219287892" route="r1" id="160" type="Bus"/>
<vehicle depart="169.90580068130834" route="r1" id="161" type="Bus"/>
<vehicle depart="169.94331078001386" route="r1" id="162" type="Car"/>
<vehicle depart="170.13630664418673" route="r1" id="163" type="Bus"/>
<vehicle depart="170.17344383221325" route="r1" id="164" type="Car"/>
<vehicle depart="170.8620231800234" route="r1" id="165" type="Car"/>
<vehicle depart="173.1325755570475" route="r1" id="166" type="Bus"/>
<vehicle depart="174.67089722838816" route="r1" id="167" type="Car"/>
<vehicle depart="175.1653724442555" route="r1" id="168" type="Bus"/>
<vehicle depart="177.82406081259253" route="r1" id="169" type="Car"/>
<vehicle depart="177.95234195729233" route="r1" id="170" type="Bus"/>
<vehicle depart="178.0503363348648" route="r1" id="171" type="Car"/>
<vehicle depart="178.75216816844565" route="r1" id="172" type="Car"/>
<vehicle depart="179.9504323345648" route="r1" id="173" type="Bus"/>
<vehicle depart="184.13997701747712" route="r1" id="174" type="Car"/>
<vehicle depart="184.36056943950206" route="r1" id="175" type="Bus"/>
<vehicle depart="185.31784626278645" route="r1" id="176" type="Car"/>
<vehicle depart="186.25345869580096" route="r1" id="177" type="Car"/>
<vehicle depart="189.58770803747788" route="r1" id="178" type="Car"/>
<vehicle depart="190.8755853239131" route="r1" id="179" type="Car"/>
<vehicle depart="191.1827882548615" route="r1" id="180" type="Car"/>
<vehicle depart="192.16579486895034" route="r1" id="181" type="Bus"/>
<vehicle depart="196.10545539293886" route="r1" id="182" type="Car"/>
<vehicle depart="196.71203713826242" route="r1" id="183" type="Bus"/>
<vehicle depart="198.0397300838939" route="r1" id="184" type="Car"/>
<vehicle depart="199.26490244632902" route="r1" id="185" type="Bus"/>
<vehicle depart="202.5176088687319" route="r1" id="186" type="Bus"/>
<vehicle depart="203.46579932933133" route="r1" id="187" type="Car"/>
<vehicle depart="204.72404374459336" route="r1" id="188" type="Car"/>
<vehicle depart="204.77232957589501" route="r1" id="189" type="Car"/>
<vehicle depart="205.19692884121895" route="r1" id="190" type="Car"/>
<vehicle depart="205.58118776334888" route="r1" id="191" type="Car"/>
<vehicle depart="206.01472802610596" route="r1" id="192" type="Car"/>
<vehicle depart="207.1751876426724" route="r1" id="193" type="Car"/>
<vehicle depart="210.38254091334116" route="r1" id="194" type="Car"/>
<vehicle depart="213.20583911738322" route="r1" id="195" type="Bus"/>
<vehicle depart="213.88254849885394" route="r1" id="196" type="Bus"/>
<vehicle depart="215.26233389361167" route="r1" id="197" type="Bus"/>
<vehicle depart="215.81521996722586" route="r1" id="198" type="Car"/>
<vehicle depart="219.9734068650216" route="r1" id="199" type="Car"/>
<vehicle depart="220.1641902845675" route="r1" id="200" type="Car"/>
<vehicle depart="221.86518529862195" route="r1" id="201" type="Car"/>
<vehicle depart="223.2563376629023" route="r1" id="202" type="Car"/>
<vehicle depart="226.55114722395865" route="r1" id="203" type="Car"/>
<vehicle depart="226.71752828046678" route="r1" id="204" type="Bus"/>
<vehicle depart="228.58112759801196" route="r1" id="205" type="Car"/>
<vehicle depart="229.7995618245191" route="r1" id="206" type="Car"/>
<vehicle depart="230.82819085632616" route="r1" id="207" type="Bus"/>
<vehicle depart="231.718166581885" route="r1" id="208" type="Car"/>
<vehicle depart="234.06823940835943" route="r1" id="209" type="Car"/>
<vehicle depart="235.39852728439496" route="r1" id="210" type="Car"/>
<vehicle depart="235.42958182240176" route="r1" id="211" type="Car"/>
<vehicle depart="238.96997017130852" route="r1" id="212" type="Car"/>
<vehicle depart="240.15978619258323" route="r1" id="213" type="Car"/>
<vehicle depart="241.7980646010507" route="r1" id="214" type="Bus"/>
<vehicle depart="242.8969610006527" route="r1" id="215" type="Car"/>
<vehicle depart="245.04786416994767" route="r1" id="216" type="Car"/>
<vehicle depart="247.63974544159055" route="r1" id="217" type="Bus"/>
<vehicle depart="247.8306414080355" route="r1" id="218" type="Bus"/>
<vehicle depart="249.50573584699268" route="r1" id="219" type="Car"/>
<vehicle depart="251.4011515520052" route="r1" id="220" type="Car"/>
<vehicle depart="252.07808161921653" route="r1" id="221" type="Car"/>
<vehicle depart="253.05991682942218" route="r1" id="222" type="Bus"/>
<vehicle depart="253.50199942493668" route="r1" id="223" type="Car"/>
<vehicle depart="257.222796203983" route="r1" id="224" type="Car"/>
<vehicle depart="262.65709738279514" route="r1" id="225" type="Bus"/>
<vehicle depart="264.35534394599944" route="r1" id="226" type="Car"/>
<vehicle depart="264.56963190354713" route="r1" id="227" type="Bus"/>
<vehicle depart="266.3196493895182" route="r1" id="228" type="Car"/>
<vehicle depart="266.4696448458347" route="r1" id="229" type="Bus"/>
<vehicle depart="266.8107481501979" route="r1" id="230" type="Bus"/>
<vehicle depart="268.19072108972404" route="r1" id="231" type="Car"/>
<vehicle depart="268.20386250421444" route="r1" id="232" type="Car"/>
<vehicle depart="268.32972505763337" route="r1" id="233" type="Car"/>
<vehicle depart="270.12255211834594" route="r1" id="234" type="Bus"/>
<vehicle depart="270.6400112245854" route="r1" id="235" type="Bus"/>
<vehicle depart="270.66666221057864" route="r1" id="236" type="Car"/>
<vehicle depart="270.92468197117773" route="r1" id="237" type="Bus"/>
<vehicle depart="277.02387002777743" route="r1" id="238" type="Car"/>
<vehicle depart="278.2323403725849" route="r1" id="239" type="Car"/>
<vehicle depart="279.009483131292" route="r1" id="240" type="Bus"/>
<vehicle depart="280.26445719618164" route="r1" id="241" type="Bus"/>
<vehicle depart="283.7807987010287" route="r1" id="242" type="Bus"/>
<vehicle depart="284.07636010820073" route="r1" id="243" type="Car"/>
<vehicle depart="284.2597886157883" route="r1" id="244" type="Car"/>
<vehicle depart="286.0127980592773" route="r1" id="245" type="Bus"/>
<vehicle depart="287.67226987554875" route="r1" id="246" type="Bus"/>
<vehicle depart="288.16921427682786" route="r1" id="247" type="Car"/>
<vehicle depart="289.1189756521619" route="r1" id="248" type="Bus"/>
<vehicle depart="289.7227871989214" route="r1" id="249" type="Car"/>
<vehicle depart="291.34741455101573" route="r1" id="250" type="Car"/>
<vehicle depart="291.5691814261491" route="r1" id="251" type="Car"/>
<vehicle depart="291.71522221887324" route="r1" id="252" type="Car"/>
<vehicle depart="295.1564573593294" route="r1" id="253" type="Car"/>
<vehicle depart="295.8645026931688" route="r1" id="254" type="Car"/>
<vehicle depart="299.5626920352207" route="r1" id="255" type="Bus"/>
<vehicle depart="300.74193461004865" route="r1" id="256" type="Car"/>
<vehicle depart="302.2320480600489" route="r1" id="257" type="Bus"/>
<vehicle depart="302.69102279183966" route="r1" id="258" type="Car"/>
<vehicle depart="304.6647565040994" route="r1" id="259" type="Car"/>
<vehicle depart="305.8983517919333" route="r1" id="260" type="Car"/>
<vehicle depart="306.19214169590845" route="r1" id="261" type="Bus"/>
<vehicle depart="307.06471985529635" route="r1" id="262" type="Car"/>
<vehicle depart="307.1728230508618" route="r1" id="263" type="Car"/>
<vehicle depart="311.02623566702414" route="r1" id="264" type="Bus"/>
<vehicle depart="311.4525472235826" route="r1" id="265" type="Bus"/>
<vehicle depart="311.5089755752684" route="r1" id="266" type="Car"/>
<vehicle depart="311.5937451731496" route="r1" id="267" type="Car"/>
<vehicle depart="313.4148161829375" route="r1" id="268" type="Car"/>
<vehicle depart="313.5868640865888" route="r1" id="269" type="Bus"/>
<vehicle depart="313.6591655933362" route="r1" id="270" type="Car"/>
<vehicle depart="313.8469496724392" route="r1" id="271" type="Car"/>
<vehicle depart="314.92120296453425" route="r1" id="272" type="Car"/>
<vehicle depart="317.07341637926766" route="r1" id="273" type="Car"/>
<vehicle depart="318.8656070451518" route="r1" id="274" type="Car"/>
<vehicle depart="324.58605095199175" route="r1" id="275" type="Car"/>
<vehicle depart="325.66262373727307" route="r1" id="276" type="Car"/>
<vehicle depart="325.9267392163605" route="r1" id="277" type="Car"/>
<vehicle depart="326.65585213194026" route="r1" id="278" type="Bus"/>
<vehicle depart="328.69107161723804" route="r1" id="279" type="Car"/>
<vehicle depart="328.902768019124" route="r1" id="280" type="Bus"/>
<vehicle depart="329.23885652256604" route="r1" id="281" type="Bus"/>
<vehicle depart="331.4036078089549" route="r1" id="282" type="Car"/>
<vehicle depart="331.48044389706547" route="r1" id="283" type="Bus"/>
<vehicle depart="333.3126814291905" route="r1" id="284" type="Car"/>
<vehicle depart="333.7643148668011" route="r1" id="285" type="Bus"/>
<vehicle depart="335.49783217845174" route="r1" id="286" type="Bus"/>
<vehicle depart="336.0710091896331" route="r1" id="287" type="Car"/>
<vehicle depart="338.8507994445817" route="r1" id="288" type="Car"/>
<vehicle depart="339.2892901267088" route="r1" id="289" type="Bus"/>
<vehicle depart="340.56532183202063" route="r1" id="290" type="Car"/>
<vehicle depart="340.79920092635683" route="r1" id="291" type="Car"/>
<vehicle depart="341.0534192070116" route="r1" id="292" type="Car"/>
<vehicle depart="342.6124984860323" route="r1" id="293" type="Car"/>
<vehicle depart="342.7141073564596" route="r1" id="294" type="Car"/>
<vehicle depart="345.6329083685987" route="r1" id="295" type="Bus"/>
<vehicle depart="345.8604374333261" route="r1" id="296" type="Car"/>
<vehicle depart="347.0023184609647" route="r1" id="297" type="Car"/>
<vehicle depart="349.37326223795816" route="r1" id="298" type="Car"/>
<vehicle depart="349.76320195434545" route="r1" id="299" type="Car"/>
<vehicle depart="351.75927482733937" route="r1" id="300" type="Bus"/>
<vehicle depart="351.9199369716591" route="r1" id="301" type="Car"/>
<vehicle depart="352.2626538017405" route="r1" id="302" type="Car"/>
<vehicle depart="353.9334163662487" route="r1" id="303" type="Bus"/>
<vehicle depart="354.0269516378668" route="r1" id="304" type="Car"/>
<vehicle depart="355.84537978513356" route="r1" id="305" type="Car"/>
<vehicle depart="355.97111350945886" route="r1" id="306" type="Car"/>
<vehicle depart="356.10844721909046" route="r1" id="307" type="Bus"/>
<vehicle depart="357.8552416026893" route="r1" id="308" type="Car"/>
<vehicle depart="359.4217783887964" route="r1" id="309" type="Car"/>
<vehicle depart="359.6505735738519" route="r1" id="310" type="Bus"/>
<vehicle depart="360.8040009994951" route="r1" id="311" type="Bus"/>
<vehicle depart="361.22154400036425" route="r1" id="312" type="Car"/>
<vehicle depart="363.01075441102597" route="r1" id="313" type="Car"/>
<vehicle depart="363.46335839977667" route="r1" id="314" type="Car"/>
<vehicle depart="363.76427703368233" route="r1" id="315" type="Car"/>
<vehicle depart="364.3280915076343" route="r1" id="316" type="Car"/>
<vehicle depart="366.81364192736675" route="r1" id="317" type="Car"/>
<vehicle depart="366.93897085767975" route="r1" id="318" type="Car"/>
<vehicle depart="369.36822951327514" route="r1" id="319" type="Car"/>
<vehicle depart="369.40212997128066" route="r1" id="320" type="Bus"/>
<vehicle depart="370.5341444857356" route="r1" id="321" type="Car"/>
<vehicle depart="371.55991442977546" route="r1" id="322" type="Car"/>
<vehicle depart="372.6695214138247" route="r1" id="323" type="Car"/>
<vehicle depart="373.36415980009775" route="r1" id="324" type="Bus"/>
<vehicle depart="373.4691085903593" route="r1" id="325" type="Car"/>
<vehicle depart="375.515527255604" route="r1" id="326" type="Car"/>
<vehicle depart="377.0951422235495" route="r1" id="327" type="Car"/>
<vehicle depart="379.32556185318174" route="r1" id="328" type="Car"/>
<vehicle depart="380.65123693321453" route="r1" id="329" type="Bus"/>
<vehicle depart="381.07324495528263" route="r1" id="330" type="Car"/>
<vehicle depart="381.82922383965746" route="r1" id="331" type="Car"/>
<vehicle depart="381.8574259711263" route="r1" id="332" type="Car"/>
<vehicle depart="382.37932778756135" route="r1" id="333" type="Bus"/>
<vehicle depart="382.9986691917076" route="r1" id="334" type="Car"/>
<vehicle depart="387.01877778665573" route="r1" id="335" type="Bus"/>
<vehicle depart="387.3672365421705" route="r1" id="336" type="Car"/>
<vehicle depart="387.8240214253471" route="r1" id="337" type="Car"/>
<vehicle depart="388.3199810079819" route="r1" id="338" type="Bus"/>
<vehicle depart="388.796709708519" route="r1" id="339" type="Car"/>
<vehicle depart="389.01946052364303" route="r1" id="340" type="Car"/>
<vehicle depart="389.18122101201067" route="r1" id="341" type="Car"/>
<vehicle depart="390.535722184443" route="r1" id="342" type="Car"/>
<vehicle depart="390.7194916827022" route="r1" id="343" type="Car"/>
<vehicle depart="392.11680718673784" route="r1" id="344" type="Car"/>
<vehicle depart="396.7275967968781" route="r1" id="345" type="Car"/>
<vehicle depart="397.77583542003595" route="r1" id="346" type="Bus"/>
<vehicle depart="398.2021659051991" route="r1" id="347" type="Bus"/>
<vehicle depart="398.7825133110921" route="r1" id="348" type="Car"/>
<vehicle depart="399.04729874213086" route="r1" id="349" type="Car"/>
<vehicle depart="399.57365247247253" route="r1" id="350" type="Bus"/>
<vehicle depart="399.80960732747445" route="r1" id="351" type="Car"/>
<vehicle depart="400.41401891151804" route="r1" id="352" type="Bus"/>
<vehicle depart="404.9252945730275" route="r1" id="353" type="Car"/>
<vehicle depart="405.4838786780187" route="r1" id="354" type="Car"/>
<vehicle depart="406.0897660145995" route="r1" id="355" type="Car"/>
<vehicle depart="406.32629302534775" route="r1" id="356" type="Car"/>
<vehicle depart="406.5093830799601" route="r1" id="357" type="Car"/>
<vehicle depart="407.13036266820086" route="r1" id="358" type="Car"/>
<vehicle depart="407.55552468625405" route="r1" id="359" type="Car"/>
<vehicle depart="409.763529693208" route="r1" id="360" type="Bus"/>
<vehicle depart="411.4822968989174" route="r1" id="361" type="Car"/>
<vehicle depart="411.76615229149434" route="r1" id="362" type="Car"/>
<vehicle depart="412.1426183948634" route="r1" id="363" type="Car"/>
<vehicle depart="415.0449824121319" route="r1" id="364" type="Car"/>
<vehicle depart="415.52659128484225" route="r1" id="365" type="Car"/>
<vehicle depart="416.07576450621644" route="r1" id="366" type="Car"/>
<vehicle depart="419.4172241114675" route="r1" id="367" type="Bus"/>
<vehicle depart="421.85175387377296" route="r1" id="368" type="Car"/>
<vehicle depart="421.8778198315013" route="r1" id="369" type="Car"/>
<vehicle depart="424.0851227255542" route="r1" id="370" type="Bus"/>
<vehicle depart="425.7105135319562" route="r1" id="371" type="Bus"/>
<vehicle depart="426.06403776665155" route="r1" id="372" type="Bus"/>
<vehicle depart="429.31041845789304" route="r1" id="373" type="Car"/>
<vehicle depart="429.3613010951296" route="r1" id="374" type="Car"/>
<vehicle depart="430.0711852134077" route="r1" id="375" type="Car"/>
<vehicle depart="432.42767507375675" route="r1" id="376" type="Car"/>
<vehicle depart="434.08297769925923" route="r1" id="377" type="Bus"/>
<vehicle depart="435.5036206549052" route="r1" id="378" type="Car"/>
<vehicle depart="437.8813729581625" route="r1" id="379" type="Car"/>
<vehicle depart="438.2974394625448" route="r1" id="380" type="Car"/>
<vehicle depart="438.6846784111862" route="r1" id="381" type="Car"/>
<vehicle depart="440.75426720590036" route="r1" id="382" type="Car"/>
<vehicle depart="440.7542712231341" route="r1" id="383" type="Car"/>
<vehicle depart="441.4092039999849" route="r1" id="384" type="Car"/>
<vehicle depart="441.99956739850484" route="r1" id="385" type="Bus"/>
<vehicle depart="442.2190815591789" route="r1" id="386" type="Bus"/>
<vehicle depart="443.66341623888366" route="r1" id="387" type="Car"/>
<vehicle depart="445.5585251337053" route="r1" id="388" type="Car"/>
<vehicle depart="445.5985507323461" route="r1" id="389" type="Car"/>
<vehicle depart="446.7621034872976" route="r1" id="390" type="Car"/>
<vehicle depart="447.9317969134617" route="r1" id="391" type="Car"/>
<vehicle depart="447.9940147547291" route="r1" id="392" type="Bus"/>
<vehicle depart="448.922165539834" route="r1" id="393" type="Car"/>
<vehicle depart="450.63753514712107" route="r1" id="394" type="Car"/>
<vehicle depart="451.4833728410749" route="r1" id="395" type="Car"/>
<vehicle depart="451.82422407909826" route="r1" id="396" type="Car"/>
<vehicle depart="452.4437998700486" route="r1" id="397" type="Bus"/>
<vehicle depart="459.0608826721112" route="r1" id="398" type="Car"/>
<vehicle depart="459.54386300827133" route="r1" id="399" type="Car"/>
<vehicle depart="459.68337266570927" route="r1" id="400" type="Car"/>
<vehicle depart="459.9237624751426" route="r1" id="401" type="Bus"/>
<vehicle depart="461.52884474074085" route="r1" id="402" type="Car"/>
<vehicle depart="461.61878732802404" route="r1" id="403" type="Car"/>
<vehicle depart="461.7622017400156" route="r1" id="404" type="Car"/>
<vehicle depart="463.27150519179065" route="r1" id="405" type="Bus"/>
<vehicle depart="463.2866877881701" route="r1" id="406" type="Car"/>
<vehicle depart="463.7015131962469" route="r1" id="407" type="Bus"/>
<vehicle depart="464.54262321133496" route="r1" id="408" type="Bus"/>
<vehicle depart="465.61107228282464" route="r1" id="409" type="Car"/>
<vehicle depart="467.55780401772535" route="r1" id="410" type="Car"/>
<vehicle depart="468.29484761448873" route="r1" id="411" type="Car"/>
<vehicle depart="468.69197119287725" route="r1" id="412" type="Bus"/>
<vehicle depart="468.9737144097997" route="r1" id="413" type="Car"/>
<vehicle depart="469.5387620784483" route="r1" id="414" type="Car"/>
<vehicle depart="470.0896568608335" route="r1" id="415" type="Car"/>
<vehicle depart="470.57067985729793" route="r1" id="416" type="Car"/>
<vehicle depart="470.8071119277729" route="r1" id="417" type="Car"/>
<vehicle depart="471.10330827783514" route="r1" id="418" type="Bus"/>
<vehicle depart="471.2155314898894" route="r1" id="419" type="Car"/>
<vehicle depart="472.69934615449307" route="r1" id="420" type="Bus"/>
<vehicle depart="473.54966846115" route="r1" id="421" type="Bus"/>
<vehicle depart="474.9458416233122" route="r1" id="422" type="Car"/>
<vehicle depart="475.512588405698" route="r1" id="423" type="Bus"/>