<routes>
<vType accel="2.5" decel="5.0" id="Car" length="5.0" maxSpeed="40" sigma="0.0"/>
<vType accel="1.5" decel="4.0" id="Bus" length="18.0" maxSpeed="25" sigma="0.0"/>
<route id="r1" edges="edge1 edge2 edge3 edge4 edge5"/>
<vehicle depart="0" route="r1" id="0" type="Car"/>
<vehicle depart="0" route="r1" id="1" type="Bus"/>
<vehicle depart="0" route="r1" id="5" type="Car"/>
<vehicle depart="0" route="r1" id="6" type="Car"/>
<vehicle depart="0" route="r1" id="8" type="Car"/>
<vehicle depart="0" route="r1" id="11" type="Bus"/>
<vehicle depart="0" route="r1" id="12" type="Bus"/>
<vehicle depart="0" route="r1" id="14" type="Car"/>
<vehicle depart="0" route="r1" id="15" type="Bus"/>
<vehicle depart="0" route="r1" id="18" type="Car"/>
<vehicle depart="0" route="r1" id="19" type="Car"/>
<vehicle depart="0" route="r1" id="20" type="Car"/>
<vehicle depart="0" route="r1" id="22" type="Car"/>
<vehicle depart="0" route="r1" id="24" type="Car"/>
<vehicle depart="0" route="r1" id="27" type="Car"/>
<vehicle depart="0" route="r1" id="30" type="Car"/>
<vehicle depart="0" route="r1" id="31" type="Car"/>
<vehicle depart="0" route="r1" id="34" type="Car"/>
<vehicle depart="0" route="r1" id="40" type="Car"/>
<vehicle depart="0" route="r1" id="41" type="Car"/>
<vehicle depart="0" route="r1" id="45" type="Car"/>
<vehicle depart="0" route="r1" id="67" type="Car"/>
<vehicle depart="0" route="r1" id="68" type="Car"/>
<vehicle depart="0" route="r1" id="71" type="Car"/>
<vehicle depart="0" route="r1" id="74" type="Car"/>
<vehicle depart="0" route="r1" id="78" type="Car"/>
<vehicle depart="0" route="r1" id="80" type="Car"/>
<vehicle depart="0" route="r1" id="84" type="Car"/>
<vehicle depart="0" route="r1" id="85" type="Bus"/>
<vehicle depart="0" route="r1" id="86" type="Car"/>
<vehicle depart="0" route="r1" id="89" type="Car"/>
<vehicle depart="0" route="r1" id="90" type="Car"/>
<vehicle depart="0" route="r1" id="91" type="Car"/>
<vehicle depart="0" route="r1" id="92" type="Bus"/>
<vehicle depart="0" route="r1" id="98" type="Car"/>
<vehicle depart="0" route="r1" id="99" type="Car"/>
<vehicle depart="0" route="r1" id="101" type="Car"/>
<vehicle depart="0" route="r1" id="102" type="Car"/>
<vehicle depart="0" route="r1" id="105" type="Car"/>
<vehicle depart="0" route="r1" id="107" type="Bus"/>
<vehicle depart="0" route="r1" id="110" type="Car"/>
<vehicle depart="0" route="r1" id="111" type="Bus"/>
<vehicle depart="0" route="r1" id="113" type="Bus"/>
<vehicle depart="0" route="r1" id="114" type="Bus"/>
<vehicle depart="0" route="r1" id="115" type="Car"/>
<vehicle depart="0" route="r1" id="116" type="Car"/>
<vehicle depart="0" route="r1" id="120" type="Car"/>
<vehicle depart="0" route="r1" id="122" type="Bus"/>
<vehicle depart="0" route="r1" id="123" type="Bus"/>
<vehicle depart="0" route="r1" id="124" type="Car"/>
<vehicle depart="0" route="r1" id="126" type="Car"/>
<vehicle depart="0" route="r1" id="128" type="Car"/>
<vehicle depart="0" route="r1" id="129" type="Car"/>
<vehicle depart="0" route="r1" id="130" type="Bus"/>
<vehicle depart="0" route="r1" id="131" type="Car"/>
<vehicle depart="0" route="r1" id="134" type="Car"/>
<vehicle depart="0" route="r1" id="137" type="Bus"/>
<vehicle depart="0" route="r1" id="140" type="Car"/>
<vehicle depart="0" route="r1" id="141" type="Car"/>
<vehicle depart="0" route="r1" id="142" type="Car"/>
<vehicle depart="0" route="r1" id="144" type="Bus"/>
<vehicle depart="0" route="r1" id="145" type="Car"/>
<vehicle depart="0" route="r1" id="148" type="Bus"/>
<vehicle depart="0" route="r1" id="150" type="Bus"/>
<vehicle depart="0" route="r1" id="151" type="Bus"/>
<vehicle depart="0" route="r1" id="158" type="Car"/>
<vehicle depart="0" route="r1" id="160" type="Car"/>
<vehicle depart="0" route="r1" id="161" type="Car"/>
<vehicle depart="0" route="r1" id="163" type="Car"/>
<vehicle depart="0" route="r1" id="171" type="Car"/>
<vehicle depart="0" route="r1" id="174" type="Bus"/>
<vehicle depart="0" route="r1" id="175" type="Car"/>
<vehicle depart="0" route="r1" id="176" type="Car"/>
<vehicle depart="0" route="r1" id="178" type="Car"/>
<vehicle depart="0" route="r1" id="180" type="Bus"/>
<vehicle depart="0" route="r1" id="181" type="Car"/>
<vehicle depart="0" route="r1" id="185" type="Bus"/>
<vehicle depart="0" route="r1" id="192" type="Car"/>
<vehicle depart="0" route="r1" id="193" type="Car"/>
<vehicle depart="0" route="r1" id="194" type="Bus"/>
<vehicle depart="0" route="r1" id="196" type="Car"/>
<vehicle depart="0" route="r1" id="199" type="Bus"/>
<vehicle depart="0" route="r1" id="209" type="Car"/>
<vehicle depart="0" route="r1" id="210" type="Car"/>
<vehicle depart="0" route="r1" id="211" type="Car"/>
<vehicle depart="0" route="r1" id="214" type="Car"/>
<vehicle depart="0" route="r1" id="215" type="Bus"/>
<vehicle depart="0" route="r1" id="216" type="Bus"/>
<vehicle depart="0" route="r1" id="219" type="Bus"/>
<vehicle depart="0" route="r1" id="220" type="Car"/>
<vehicle depart="0" route="r1" id="223" type="Car"/>
<vehicle depart="0" route="r1" id="226" type="Car"/>
<vehicle depart="0" route="r1" id="228" type="Car"/>
<vehicle depart="0" route="r1" id="229" type="Car"/>
<vehicle depart="0" route="r1" id="230" type="Car"/>
<vehicle depart="0" route="r1" id="231" type="Car"/>
<vehicle depart="0" route="r1" id="232" type="Car"/>
<vehicle depart="0" route="r1" id="236" type="Bus"/>
<vehicle depart="0" route="r1" id="237" type="Car"/>
<vehicle depart="0" route="r1" id="241" type="Car"/>
<vehicle depart="0" route="r1" id="247" type="Car"/>
<vehicle depart="0" route="r1" id="250" type="Car"/>
<vehicle depart="0" route="r1" id="251" type="Car"/>
<vehicle depart="0" route="r1" id="252" type="Car"/>
<vehicle depart="0" route="r1" id="254" type="Car"/>
<vehicle depart="0" route="r1" id="257" type="Car"/>
<vehicle depart="0" route="r1" id="258" type="Car"/>
<vehicle depart="0" route="r1" id="260" type="Bus"/>
<vehicle depart="0" route="r1" id="265" type="Car"/>
<vehicle depart="0" route="r1" id="266" type="Bus"/>
<vehicle depart="0" route="r1" id="267" type="Bus"/>
<vehicle depart="0" route="r1" id="268" type="Car"/>
<vehicle depart="0" route="r1" id="270" type="Bus"/>
<vehicle depart="0" route="r1" id="271" type="Car"/>
<vehicle depart="0" route="r1" id="272" type="Car"/>
<vehicle depart="0" route="r1" id="273" type="Bus"/>
<vehicle depart="0" route="r1" id="277" type="Bus"/>
<vehicle depart="0" route="r1" id="278" type="Bus"/>
<vehicle depart="0" route="r1" id="280" type="Car"/>
<vehicle depart="0" route="r1" id="283" type="Bus"/>
<vehicle depart="0" route="r1" id="284" type="Car"/>
<vehicle depart="0" route="r1" id="285" type="Bus"/>
<vehicle depart="0" route="r1" id="286" type="Car"/>
<vehicle depart="0" route="r1" id="289" type="Car"/>
<vehicle depart="0" route="r1" id="293" type="Bus"/>
<vehicle depart="0" route="r1" id="294" type="Car"/>
<vehicle depart="0" route="r1" id="295" type="Car"/>
<vehicle depart="0" route="r1" id="297" type="Car"/>
<vehicle depart="0" route="r1" id="300" type="Bus"/>
<vehicle depart="0" route="r1" id="301" type="Bus"/>
<vehicle depart="0" route="r1" id="305" type="Car"/>
<vehicle depart="0" route="r1" id="307" type="Car"/>
<vehicle depart="0" route="r1" id="310" type="Car"/>
<vehicle depart="0" route="r1" id="313" type="Car"/>
<vehicle depart="0" route="r1" id="314" type="Car"/>
<vehicle depart="0" route="r1" id="316" type="Car"/>
<vehicle depart="0" route="r1" id="319" type="Bus"/>
<vehicle depart="0" route="r1" id="320" type="Bus"/>
<vehicle depart="0" route="r1" id="321" type="Car"/>
<vehicle depart="0" route="r1" id="322" type="Car"/>
<vehicle depart="0" route="r1" id="325" type="Car"/>
<vehicle depart="0" route="r1" id="326" type="Car"/>
<vehicle depart="0" route="r1" id="328" type="Car"/>
<vehicle depart="0" route="r1" id="330" type="Car"/>
<vehicle depart="0" route="r1" id="332" type="Car"/>
<vehicle depart="0" route="r1" id="333" type="Car"/>
<vehicle depart="0" route="r1" id="336" type="Car"/>
<vehicle depart="0" route="r1" id="337" type="Car"/>
<vehicle depart="0" route="r1" id="338" type="Car"/>
<vehicle depart="0" route="r1" id="339" type="Bus"/>
<vehicle depart="0" route="r1" id="341" type="Car"/>
<vehicle depart="0" route="r1" id="342" type="Car"/>
<vehicle depart="0" route="r1" id="343" type="Car"/>
<vehicle depart="0" route="r1" id="348" type="Car"/>
<vehicle depart="0" route="r1" id="351" type="Bus"/>
<vehicle depart="0" route="r1" id="353" type="Bus"/>
<vehicle depart="0" route="r1" id="360" type="Car"/>
<vehicle depart="0" route="r1" id="361" type="Car"/>
<vehicle depart="0" route="r1" id="368" type="Car"/>
<vehicle depart="0" route="r1" id="370" type="Car"/>
<vehicle depart="0" route="r1" id="373" type="Car"/>
<vehicle depart="0" route="r1" id="374" type="Car"/>
<vehicle depart="0" route="r1" id="375" type="Car"/>
<vehicle depart="0" route="r1" id="377" type="Car"/>
<vehicle depart="0" route="r1" id="378" type="Bus"/>
<vehicle depart="0" route="r1" id="380" type="Car"/>
<vehicle depart="0" route="r1" id="381" type="Car"/>
<vehicle depart="0" route="r1" id="382" type="Car"/>
<vehicle depart="0" route="r1" id="383" type="Car"/>
<vehicle depart="0" route="r1" id="384" type="Car"/>
<vehicle depart="0" route="r1" id="387" type="Car"/>
<vehicle depart="0" route="r1" id="388" type="Car"/>
<vehicle depart="0" route="r1" id="389" type="Car"/>
<vehicle depart="0" route="r1" id="390" type="Car"/>
<vehicle depart="0" route="r1" id="391" type="Car"/>
<vehicle depart="0" route="r1" id="393" type="Car"/>
<vehicle depart="0" route="r1" id="395" type="Car"/>
<vehicle depart="0" route="r1" id="398" type="Car"/>
<vehicle depart="0" route="r1" id="399" type="Car"/>
<vehicle depart="0" route="r1" id="400" type="Bus"/>
<vehicle depart="0" route="r1" id="402" type="Car"/>
<vehicle depart="0" route="r1" id="406" type="Car"/>
<vehicle depart="0" route="r1" id="409" type="Car"/>
<vehicle depart="0" route="r1" id="410" type="Car"/>
<vehicle depart="0" route="r1" id="413" type="Bus"/>
<vehicle depart="0" route="r1" id="415" type="Car"/>
<vehicle depart="0" route="r1" id="417" type="Bus"/>
<vehicle depart="0" route="r1" id="418" type="Car"/>
<vehicle depart="0" route="r1" id="419" type="Car"/>
<vehicle depart="0" route="r1" id="421" type="Bus"/>
<vehicle depart="0" route="r1" id="423" type="Bus"/>
<vehicle depart="0" route="r1" id="425" type="Car"/>
<vehicle depart="0" route="r1" id="426" type="Car"/>
<vehicle depart="0" route="r1" id="431" type="Bus"/>
<vehicle depart="0" route="r1" id="432" type="Car"/>
<vehicle depart="0" route="r1" id="435" type="Bus"/>
<vehicle depart="0" route="r1" id="437" type="Bus"/>
<vehicle depart="0" route="r1" id="438" type="Car"/>
<vehicle depart="0" route="r1" id="439" type="Bus"/>
<vehicle depart="0" route="r1" id="440" type="Bus"/>
<vehicle depart="0" route="r1" id="441" type="Car"/>
<vehicle depart="0" route="r1" id="444" type="Car"/>
<vehicle depart="0" route="r1" id="445" type="Car"/>
<vehicle depart="0" route="r1" id="453" type="Car"/>
<vehicle depart="0" route="r1" id="457" type="Bus"/>
<vehicle depart="0" route="r1" id="466" type="Bus"/>
<vehicle depart="0" route="r1" id="469" type="Bus"/>
<vehicle depart="0" route="r1" id="470" type="Bus"/>
<vehicle depart="0" route="r1" id="471" type="Car"/>
<vehicle depart="0" route="r1" id="474" type="Bus"/>
<vehicle depart="0" route="r1" id="477" type="Car"/>
<vehicle depart="0" route="r1" id="478" type="Car"/>
<vehicle depart="0" route="r1" id="480" type="Bus"/>
<vehicle depart="0" route="r1" id="481" type="Car"/>
<vehicle depart="0" route="r1" id="486" type="Car"/>
<vehicle depart="0" route="r1" id="492" type="Car"/>
<vehicle depart="0" route="r1" id="494" type="Car"/>
<vehicle depart="0" route="r1" id="503" type="Car"/>
<vehicle depart="0" route="r1" id="505" type="Car"/>
<vehicle depart="0" route="r1" id="507" type="Car"/>
<vehicle depart="0" route="r1" id="509" type="Car"/>
<vehicle depart="0" route="r1" id="510" type="Car"/>
<vehicle depart="0" route="r1" id="513" type="Car"/>
<vehicle depart="0" route="r1" id="519" type="Bus"/>
<vehicle depart="0" route="r1" id="524" type="Car"/>
<vehicle depart="0" route="r1" id="525" type="Car"/>
<vehicle depart="0" route="r1" id="536" type="Car"/>
<vehicle depart="0" route="r1" id="537" type="Car"/>
<vehicle depart="0" route="r1" id="538" type="Car"/>
<vehicle depart="0" route="r1" id="539" type="Car"/>
<vehicle depart="0" route="r1" id="540" type="Bus"/>
<vehicle depart="0" route="r1" id="545" type="Car"/>
<vehicle depart="0" route="r1" id="547" type="Car"/>
<vehicle depart="0" route="r1" id="551" type="Bus"/>
<vehicle depart="0" route="r1" id="553" type="Car"/>
<vehicle depart="0" route="r1" id="556" type="Car"/>
<vehicle depart="0" route="r1" id="557" type="Car"/>
<vehicle depart="0" route="r1" id="559" type="Car"/>
<vehicle depart="0" route="r1" id="565" type="Car"/>
<vehicle depart="0" route="r1" id="566" type="Bus"/>
<vehicle depart="0" route="r1" id="569" type="Car"/>
<vehicle depart="0" route="r1" id="571" type="Car"/>
<vehicle depart="0" route="r1" id="572" type="Car"/>
<vehicle depart="0" route="r1" id="573" type="Car"/>
<vehicle depart="0" route="r1" id="578" type="Car"/>
<vehicle depart="0" route="r1" id="582" type="Car"/>
<vehicle depart="0" route="r1" id="583" type="Bus"/>
<vehicle depart="0" route="r1" id="584" type="Car"/>
<vehicle depart="0" route="r1" id="587" type="Car"/>
<vehicle depart="0" route="r1" id="591" type="Bus"/>
<vehicle depart="0" route="r1" id="593" type="Bus"/>
<vehicle depart="0" route="r1" id="599" type="Bus"/>
<vehicle depart="0" route="r1" id="602" type="Car"/>
<vehicle depart="0" route="r1" id="603" type="Car"/>
<vehicle depart="0" route="r1" id="604" type="Car"/>
<vehicle depart="0" route="r1" id="609" type="Car"/>
<vehicle depart="0" route="r1" id="613" type="Car"/>
<vehicle depart="0" route="r1" id="616" type="Bus"/>
<vehicle depart="0" route="r1" id="617" type="Bus"/>
<vehicle depart="0" route="r1" id="618" type="Car"/>
<vehicle depart="0" route="r1" id="621" type="Car"/>
<vehicle depart="0" route="r1" id="623" type="Car"/>
<vehicle depart="0" route="r1" id="624" type="Car"/>
<vehicle depart="0" route="r1" id="631" type="Bus"/>
<vehicle depart="0" route="r1" id="632" type="Car"/>
<vehicle depart="0" route="r1" id="633" type="Car"/>
<vehicle depart="0" route="r1" id="634" type="Car"/>
<vehicle depart="0" route="r1" id="635" type="Car"/>
<vehicle depart="0" route="r1" id="637" type="Bus"/>
<vehicle depart="0" route="r1" id="645" type="Car"/>
<vehicle depart="0" route="r1" id="646" type="Bus"/>
<vehicle depart="0" route="r1" id="649" type="Car"/>
<vehicle depart="0" route="r1" id="650" type="Car"/>
<vehicle depart="0" route="r1" id="651" type="Car"/>
<vehicle depart="0" route="r1" id="652" type="Car"/>
<vehicle depart="0" route="r1" id="653" type="Car"/>
<vehicle depart="0" route="r1" id="655" type="Bus"/>
<vehicle depart="0" route="r1" id="657" type="Bus"/>
<vehicle depart="0" route="r1" id="658" type="Car"/>
<vehicle depart="0" route="r1" id="659" type="Car"/>
<vehicle depart="0" route="r1" id="660" type="Bus"/>
<vehicle depart="0" route="r1" id="662" type="Car"/>
<vehicle depart="0" route="r1" id="665" type="Car"/>
<vehicle depart="0" route="r1" id="667" type="Car"/>
<vehicle depart="0" route="r1" id="668" type="Car"/>
<vehicle depart="0" route="r1" id="669" type="Car"/>
<vehicle depart="0" route="r1" id="671" type="Bus"/>
<vehicle depart="0" route="r1" id="673" type="Car"/>
<vehicle depart="0" route="r1" id="674" type="Car"/>
<vehicle depart="0" route="r1" id="675" type="Car"/>
<vehicle depart="0" route="r1" id="676" type="Bus"/>
<vehicle depart="0" route="r1" id="677" type="Car"/>
<vehicle depart="0" route="r1" id="678" type="Car"/>
<vehicle depart="0" route="r1" id="680" type="Bus"/>
<vehicle depart="0" route="r1" id="681" type="Car"/>
<vehicle depart="0" route="r1" id="684" type="Bus"/>
<vehicle depart="0" route="r1" id="685" type="Bus"/>
<vehicle depart="0" route="r1" id="686" type="Bus"/>
<vehicle depart="0" route="r1" id="690" type="Bus"/>
<vehicle depart="0" route="r1" id="692" type="Bus"/>
<vehicle depart="0" route="r1" id="698" type="Car"/>
<vehicle depart="0" route="r1" id="699" type="Bus"/>
<vehicle depart="0" route="r1" id="700" type="Car"/>
<vehicle depart="0" route="r1" id="703" type="Car"/>
<vehicle depart="0" route="r1" id="705" type="Car"/>
<vehicle depart="0" route="r1" id="711" type="Bus"/>
<vehicle depart="0" route="r1" id="712" type="Car"/>
<vehicle depart="0" route="r1" id="715" type="Car"/>
<vehicle depart="0" route="r1" id="716" type="Bus"/>
<vehicle depart="0" route="r1" id="717" type="Car"/>
<vehicle depart="0" route="r1" id="720" type="Car"/>
<vehicle depart="0" route="r1" id="724" type="Bus"/>
<vehicle depart="0" route="r1" id="725" type="Car"/>
<vehicle depart="0" route="r1" id="727" type="Car"/>
<vehicle depart="0" route="r1" id="729" type="Car"/>
<vehicle depart="0" route="r1" id="730" type="Car"/>
<vehicle depart="0" route="r1" id="731" type="Car"/>
<vehicle depart="0" route="r1" id="734" type="Car"/>
<vehicle depart="0" route="r1" id="735" type="Car"/>
<vehicle depart="0" route="r1" id="736" type="Car"/>
<vehicle depart="0" route="r1" id="738" type="Car"/>
<vehicle depart="0" route="r1" id="739" type="Bus"/>
<vehicle depart="0" route="r1" id="740" type="Bus"/>
<vehicle depart="0" route="r1" id="745" type="Car"/>
<vehicle depart="0" route="r1" id="747" type="Car"/>
<vehicle depart="0" route="r1" id="750" type="Car"/>
<vehicle depart="0" route="r1" id="752" type="Car"/>
<vehicle depart="0" route="r1" id="753" type="Bus"/>
<vehicle depart="0" route="r1" id="754" type="Bus"/>
<vehicle depart="0" route="r1" id="756" type="Car"/>
<vehicle depart="0" route="r1" id="757" type="Car"/>
<vehicle depart="0" route="r1" id="760" type="Car"/>
<vehicle depart="0" route="r1" id="762" type="Bus"/>
<vehicle depart="0" route="r1" id="765" type="Car"/>
<vehicle depart="0" route="r1" id="766" type="Car"/>
<vehicle depart="0" route="r1" id="772" type="Car"/>
<vehicle depart="0" route="r1" id="773" type="Bus"/>
<vehicle depart="0" route="r1" id="774" type="Car"/>
<vehicle depart="0" route="r1" id="776" type="Car"/>
<vehicle depart="0" route="r1" id="782" type="Bus"/>
<vehicle depart="0" route="r1" id="788" type="Car"/>
<vehicle depart="0" route="r1" id="789" type="Car"/>
<vehicle depart="0" route="r1" id="794" type="Car"/>
<vehicle depart="0" route="r1" id="795" type="Car"/>
<vehicle depart="0" route="r1" id="797" type="Car"/>
<vehicle depart="0" route="r1" id="798" type="Car"/>
<vehicle depart="0" route="r1" id="800" type="Car"/>
<vehicle depart="0" route="r1" id="801" type="Car"/>
<vehicle depart="0" route="r1" id="805" type="Car"/>
<vehicle depart="0" route="r1" id="807" type="Car"/>
<vehicle depart="0" route="r1" id="808" type="Bus"/>
<vehicle depart="0" route="r1" id="813" type="Car"/>
<vehicle depart="0" route="r1" id="814" type="Car"/>
<vehicle depart="0" route="r1" id="819" type="Bus"/>
<vehicle depart="0" route="r1" id="828" type="Bus"/>
<vehicle depart="0" route="r1" id="829" type="Car"/>
<vehicle depart="0" route="r1" id="831" type="Car"/>
<vehicle depart="0" route="r1" id="833" type="Bus"/>
<vehicle depart="0" route="r1" id="838" type="Car"/>
<vehicle depart="0" route="r1" id="842" type="Car"/>
<vehicle depart="0" route="r1" id="844" type="Car"/>
<vehicle depart="0" route="r1" id="845" type="Bus"/>
<vehicle depart="0" route="r1" id="850" type="Bus"/>
<vehicle depart="0" route="r1" id="851" type="Car"/>
<vehicle depart="0" route="r1" id="852" type="Car"/>
<vehicle depart="0" route="r1" id="853" type="Bus"/>
<vehicle depart="0" route="r1" id="856" type="Bus"/>
<vehicle depart="0" route="r1" id="857" type="Car"/>
<vehicle depart="0" route="r1" id="859" type="Car"/>
<vehicle depart="0" route="r1" id="860" type="Car"/>
<vehicle depart="0" route="r1" id="862" type="Car"/>
<vehicle depart="0" route="r1" id="864" type="Bus"/>
<vehicle depart="0" route="r1" id="867" type="Car"/>
<vehicle depart="0" route="r1" id="869" type="Car"/>
<vehicle depart="0" route="r1" id="875" type="Car"/>
<vehicle depart="0" route="r1" id="876" type="Bus"/>
<vehicle depart="0" route="r1" id="877" type="Car"/>
<vehicle depart="0" route="r1" id="878" type="Car"/>
<vehicle depart="0" route="r1" id="883" type="Car"/>
<vehicle depart="0" route="r1" id="887" type="Car"/>
<vehicle depart="0" route="r1" id="889" type="Car"/>
<vehicle depart="0" route="r1" id="890" type="Car"/>
<vehicle depart="0" route="r1" id="891" type="Car"/>
<vehicle depart="0" route="r1" id="893" type="Car"/>
<vehicle depart="0" route="r1" id="894" type="Car"/>
<vehicle depart="0" route="r1" id="899" type="Car"/>
<vehicle depart="0" route="r1" id="904" type="Bus"/>
<vehicle depart="0" route="r1" id="909" type="Car"/>
<vehicle depart="0" route="r1" id="911" type="Car"/>
<vehicle depart="0" route="r1" id="912" type="Car"/>
<vehicle depart="0" route="r1" id="913" type="Bus"/>
<vehicle depart="0" route="r1" id="916" type="Car"/>
<vehicle depart="0" route="r1" id="919" type="Bus"/>
<vehicle depart="0" route="r1" id="928" type="Car"/>
<vehicle depart="0" route="r1" id="932" type="Car"/>
<vehicle depart="0" route="r1" id="933" type="Car"/>
<vehicle depart="0" route="r1" id="938" type="Bus"/>
<vehicle depart="0" route="r1" id="940" type="Car"/>
<vehicle depart="0" route="r1" id="941" type="Car"/>
<vehicle depart="0" route="r1" id="942" type="Car"/>
<vehicle depart="0" route="r1" id="943" type="Car"/>
<vehicle depart="0" route="r1" id="949" type="Car"/>
<vehicle depart="0" route="r1" id="958" type="Car"/>
<vehicle depart="0" route="r1" id="959" type="Car"/>
<vehicle depart="0" route="r1" id="960" type="Bus"/>
<vehicle depart="0" route="r1" id="963" type="Bus"/>
<vehicle depart="0" route="r1" id="965" type="Car"/>
<vehicle depart="0" route="r1" id="967" type="Bus"/>
<vehicle depart="0" route="r1" id="968" type="Car"/>
<vehicle depart="0" route="r1" id="970" type="Car"/>
<vehicle depart="0" route="r1" id="972" type="Bus"/>
<vehicle depart="0" route="r1" id="973" type="Car"/>
<vehicle depart="0" route="r1" id="977" type="Car"/>
<vehicle depart="0" route="r1" id="984" type="Car"/>
<vehicle depart="0" route="r1" id="985" type="Car"/>
<vehicle depart="0" route="r1" id="989" type="Car"/>
<vehicle depart="0" route="r1" id="992" type="Bus"/>
<vehicle depart="0" route="r1" id="993" type="Bus"/>
<vehicle depart="0" route="r1" id="994" type="Car"/>
<vehicle depart="0" route="r1" id="996" type="Car"/>
<vehicle depart="0" route="r1" id="998" type="Car"/>
<vehicle depart="0" route="r1" id="999" type="Car"/>
<vehicle depart="0" route="r1" id="1008" type="Car"/>
<vehicle depart="0" route="r1" id="1009" type="Car"/>
<vehicle depart="0" route="r1" id="1010" type="Car"/>
<vehicle depart="0" route="r1" id="1013" type="Bus"/>
<vehicle depart="0" route="r1" id="1014" type="Car"/>
<vehicle depart="0" route="r1" id="1015" type="Car"/>
<vehicle depart="0" route="r1" id="1019" type="Bus"/>
<vehicle depart="0" route="r1" id="1020" type="Bus"/>
<vehicle depart="0" route="r1" id="1022" type="Car"/>
<vehicle depart="0" route="r1" id="1026" type="Car"/>
<vehicle depart="0" route="r1" id="1028" type="Car"/>
<vehicle depart="0" route="r1" id="1029" type="Bus"/>
<vehicle depart="0" route="r1" id="1036" type="Car"/>
<vehicle depart="0" route="r1" id="1037" type="Car"/>
<vehicle depart="0" route="r1" id="1040" type="Bus"/>
<vehicle depart="0" route="r1" id="1041" type="Car"/>
<vehicle depart="0" route="r1" id="1044" type="Car"/>
<vehicle depart="0" route="r1" id="1045" type="Car"/>
<vehicle depart="0" route="r1" id="1046" type="Bus"/>
<vehicle depart="0" route="r1" id="1047" type="Car"/>
<vehicle depart="0" route="r1" id="1048" type="Bus"/>
<vehicle depart="0" route="r1" id="1049" type="Car"/>
<vehicle depart="0" route="r1" id="1051" type="Car"/>
<vehicle depart="0" route="r1" id="1052" type="Car"/>
<vehicle depart="0" route="r1" id="1053" type="Car"/>
<vehicle depart="0" route="r1" id="1054" type="Car"/>
<vehicle depart="0" route="r1" id="1055" type="Car"/>
<vehicle depart="0" route="r1" id="1062" type="Car"/>
<vehicle depart="0" route="r1" id="1063" type="Car"/>
<vehicle depart="0" route="r1" id="1065" type="Car"/>
<vehicle depart="0" route="r1" id="1066" type="Bus"/>
<vehicle depart="0" route="r1" id="1069" type="Car"/>
<vehicle depart="0" route="r1" id="1070" type="Car"/>
<vehicle depart="0" route="r1" id="1071" type="Car"/>
<vehicle depart="0" route="r1" id="1080" type="Car"/>
<vehicle depart="0" route="r1" id="1082" type="Bus"/>
<vehicle depart="0" route="r1" id="1084" type="Car"/>
<vehicle depart="0" route="r1" id="1087" type="Car"/>
<vehicle depart="0" route="r1" id="1093" type="Car"/>
<vehicle depart="0" route="r1" id="1095" type="Car"/>
<vehicle depart="0" route="r1" id="1098" type="Car"/>
<vehicle depart="0" route="r1" id="1103" type="Car"/>
<vehicle depart="0" route="r1" id="1111" type="Car"/>
<vehicle depart="0" route="r1" id="1112" type="Car"/>
<vehicle depart="0" route="r1" id="1115" type="Bus"/>
<vehicle depart="0" route="r1" id="1116" type="Bus"/>
<vehicle depart="0" route="r1" id="1119" type="Bus"/>
<vehicle depart="0" route="r1" id="1122" type="Car"/>
<vehicle depart="0" route="r1" id="1123" type="Car"/>
<vehicle depart="0" route="r1" id="1125" type="Car"/>
<vehicle depart="0" route="r1" id="1126" type="Car"/>
<vehicle depart="0" route="r1" id="1129" type="Bus"/>
<vehicle depart="0" route="r1" id="1131" type="Car"/>
<vehicle depart="0" route="r1" id="1132" type="Car"/>
<vehicle depart="0" route="r1" id="1134" type="Car"/>
<vehicle depart="0" route="r1" id="1137" type="Bus"/>
<vehicle depart="0" route="r1" id="1138" type="Car"/>
<vehicle depart="0" route="r1" id="1139" type="Car"/>
<vehicle depart="0" route="r1" id="1142" type="Car"/>
<vehicle depart="0" route="r1" id="1144" type="Car"/>
<vehicle depart="0" route="r1" id="1145" type="Car"/>
<vehicle depart="0" route="r1" id="1147" type="Bus"/>
<vehicle depart="0" route="r1" id="1148" type="Car"/>
<vehicle depart="0" route="r1" id="1150" type="Car"/>
<vehicle depart="0" route="r1" id="1154" type="Bus"/>
<vehicle depart="0" route="r1" id="1155" type="Car"/>
<vehicle depart="0" route="r1" id="1156" type="Car"/>
<vehicle depart="0" route="r1" id="1158" type="Bus"/>
<vehicle depart="0" route="r1" id="1160" type="Bus"/>
<vehicle depart="0" route="r1" id="1162" type="Car"/>
<vehicle depart="0" route="r1" id="1164" type="Car"/>
<vehicle depart="0" route="r1" id="1170" type="Bus"/>
<vehicle depart="0" route="r1" id="1172" type="Car"/>
<vehicle depart="0" route="r1" id="1173" type="Bus"/>
<vehicle depart="0" route="r1" id="1174" type="Car"/>
<vehicle depart="0" route="r1" id="1176" type="Bus"/>
<vehicle depart="0" route="r1" id="1177" type="Car"/>
<vehicle depart="0" route="r1" id="1181" type="Car"/>
<vehicle depart="0" route="r1" id="1183" type="Car"/>
<vehicle depart="0" route="r1" id="1185" type="Bus"/>
<vehicle depart="0" route="r1" id="1186" type="Bus"/>
<vehicle depart="0" route="r1" id="1187" type="Bus"/>
<vehicle depart="0" route="r1" id="1194" type="Car"/>
<vehicle depart="0" route="r1" id="1198" type="Bus"/>
<vehicle depart="0" route="r1" id="1199" type="Bus"/>
<vehicle depart="0" route="r1" id="1200" type="Car"/>
<vehicle depart="0" route="r1" id="1201" type="Bus"/>
<vehicle depart="0" route="r1" id="1202" type="Car"/>
<vehicle depart="0" route="r1" id="1207" type="Car"/>
<vehicle depart="0" route="r1" id="1209" type="Bus"/>
<vehicle depart="0" route="r1" id="1210" type="Car"/>
<vehicle depart="0" route="r1" id="1211" type="Car"/>
<vehicle depart="0" route="r1" id="1212" type="Car"/>
<vehicle depart="0" route="r1" id="1213" type="Car"/>
<vehicle depart="0" route="r1" id="1214" type="Bus"/>
<vehicle depart="0" route="r1" id="1219" type="Car"/>
<vehicle depart="0" route="r1" id="1220" type="Car"/>
<vehicle depart="0" route="r1" id="1224" type="Car"/>
<vehicle depart="0" route="r1" id="1226" type="Car"/>
<vehicle depart="0" route="r1" id="1227" type="Car"/>
<vehicle depart="0" route="r1" id="1229" type="Car"/>
<vehicle depart="0" route="r1" id="1230" type="Bus"/>
<vehicle depart="0" route="r1" id="1231" type="Car"/>
<vehicle depart="0" route="r1" id="1232" type="Car"/>
<vehicle depart="0" route="r1" id="1233" type="Bus"/>
<vehicle depart="0" route="r1" id="1240" type="Car"/>
<vehicle depart="0" route="r1" id="1241" type="Car"/>
<vehicle depart="0" route="r1" id="1244" type="Car"/>
<vehicle depart="0" route="r1" id="1246" type="Car"/>
<vehicle depart="0" route="r1" id="1247" type="Car"/>
<vehicle depart="0" route="r1" id="1248" type="Car"/>
<vehicle depart="0" route="r1" id="1249" type="Car"/>
<vehicle depart="0" route="r1" id="1250" type="Car"/>
<vehicle depart="0" route="r1" id="1253" type="Car"/>
<vehicle depart="0" route="r1" id="1254" type="Bus"/>
<vehicle depart="0" route="r1" id="1257" type="Car"/>
<vehicle depart="0" route="r1" id="1260" type="Car"/>
<vehicle depart="0" route="r1" id="1265" type="Bus"/>
<vehicle depart="0" route="r1" id="1266" type="Bus"/>
<vehicle depart="0" route="r1" id="1267" type="Car"/>
<vehicle depart="0" route="r1" id="1268" type="Car"/>
<vehicle depart="0" route="r1" id="1270" type="Bus"/>
<vehicle depart="0" route="r1" id="1271" type="Car"/>
<vehicle depart="0" route="r1" id="1275" type="Bus"/>
<vehicle depart="0" route="r1" id="1276" type="Car"/>
<vehicle depart="0" route="r1" id="1277" type="Bus"/>
<vehicle depart="0" route="r1" id="1278" type="Car"/>