<routes>
<vType accel="2.5" decel="5.0" id="Car" length="5.0" maxSpeed="40" sigma="1.0" carFollowModel="IDM"/>
<vType accel="1.5" decel="4.0" id="Bus" length="18.0" maxSpeed="25" sigma="1.0" carFollowModel="IDM" />
<route id="r1" edges="edge1 edge2 edge3 edge4 edge5"/>
<vehicle depart="0.9415660198239842" route="r1" id="0" type="Bus"/>
<vehicle depart="0.9982149690724352" route="r1" id="1" type="Bus"/>
<vehicle depart="1.1889876583880399" route="r1" id="2" type="Bus"/>
<vehicle depart="1.9108601079607421" route="r1" id="3" type="Bus"/>
<vehicle depart="2.263887917891277" route="r1" id="4" type="Bus"/>
<vehicle depart="2.4477393171379713" route="r1" id="5" type="Bus"/>
<vehicle depart="5.377697460444687" route="r1" id="6" type="Car"/>
<vehicle depart="6.050570864734443" route="r1" id="7" type="Bus"/>
<vehicle depart="7.773509356381377" route="r1" id="8" type="Bus"/>
<vehicle depart="8.243842742196161" route="r1" id="9" type="Car"/>
<vehicle depart="9.404858039864902" route="r1" id="10" type="Car"/>
<vehicle depart="10.331527728221495" route="r1" id="11" type="Bus"/>
<vehicle depart="11.16532009286572" route="r1" id="12" type="Car"/>
<vehicle depart="12.229218798651099" route="r1" id="13" type="Bus"/>
<vehicle depart="12.37856509772544" route="r1" id="14" type="Car"/>
<vehicle depart="12.664306391699045" route="r1" id="15" type="Car"/>
<vehicle depart="13.389853728079093" route="r1" id="16" type="Bus"/>
<vehicle depart="16.43830210619282" route="r1" id="17" type="Car"/>
<vehicle depart="16.703044988835057" route="r1" id="18" type="Car"/>
<vehicle depart="18.091999754279122" route="r1" id="19" type="Bus"/>
<vehicle depart="18.81357502072639" route="r1" id="20" type="Car"/>
<vehicle depart="19.401787809143134" route="r1" id="21" type="Bus"/>
<vehicle depart="19.61893037751004" route="r1" id="22" type="Car"/>
<vehicle depart="19.628526548686082" route="r1" id="23" type="Car"/>
<vehicle depart="20.895590050335475" route="r1" id="24" type="Car"/>
<vehicle depart="21.237719081112047" route="r1" id="25" type="Car"/>
<vehicle depart="21.91470126414331" route="r1" id="26" type="Car"/>
<vehicle depart="22.23622861135429" route="r1" id="27" type="Car"/>
<vehicle depart="22.295584040053953" route="r1" id="28" type="Car"/>
<vehicle depart="23.298573632922384" route="r1" id="29" type="Car"/>
<vehicle depart="26.027964662436997" route="r1" id="30" type="Car"/>
<vehicle depart="26.613891167707376" route="r1" id="31" type="Bus"/>
<vehicle depart="28.313863209475393" route="r1" id="32" type="Car"/>
<vehicle depart="28.466292049101135" route="r1" id="33" type="Bus"/>
<vehicle depart="31.25777499813265" route="r1" id="34" type="Car"/>
<vehicle depart="31.459018777187683" route="r1" id="35" type="Bus"/>
<vehicle depart="31.468575698827117" route="r1" id="36" type="Car"/>
<vehicle depart="32.19027653079739" route="r1" id="37" type="Car"/>
<vehicle depart="32.853491886308966" route="r1" id="38" type="Car"/>
<vehicle depart="32.97796670460722" route="r1" id="39" type="Car"/>
<vehicle depart="33.48321462826426" route="r1" id="40" type="Car"/>
<vehicle depart="33.54560850310915" route="r1" id="41" type="Car"/>
<vehicle depart="34.17824255108986" route="r1" id="42" type="Bus"/>
<vehicle depart="34.200804814774386" route="r1" id="43" type="Car"/>
<vehicle depart="34.29892922414462" route="r1" id="44" type="Car"/>
<vehicle depart="34.887768152125744" route="r1" id="45" type="Car"/>
<vehicle depart="35.35052191870917" route="r1" id="46" type="Bus"/>
<vehicle depart="40.00653833701611" route="r1" id="47" type="Bus"/>
<vehicle depart="40.380036572151496" route="r1" id="48" type="Car"/>
<vehicle depart="41.06329290461192" route="r1" id="49" type="Car"/>
<vehicle depart="41.28939974582261" route="r1" id="50" type="Car"/>
<vehicle depart="42.276263769117506" route="r1" id="51" type="Car"/>
<vehicle depart="43.23884382252218" route="r1" id="52" type="Car"/>
<vehicle depart="43.508902105429414" route="r1" id="53" type="Bus"/>
<vehicle depart="44.97429211180296" route="r1" id="54" type="Bus"/>
<vehicle depart="45.42387270097437" route="r1" id="55" type="Bus"/>
<vehicle depart="47.44140133445534" route="r1" id="56" type="Car"/>
<vehicle depart="47.96566055706122" route="r1" id="57" type="Car"/>
<vehicle depart="48.13446221643132" route="r1" id="58" type="Bus"/>
<vehicle depart="48.24340522818904" route="r1" id="59" type="Bus"/>
<vehicle depart="48.61974815395896" route="r1" id="60" type="Car"/>
<vehicle depart="49.01677759256032" route="r1" id="61" type="Bus"/>
<vehicle depart="50.67067159564926" route="r1" id="62" type="Car"/>
<vehicle depart="51.33275327909659" route="r1" id="63" type="Car"/>
<vehicle depart="51.587128978428375" route="r1" id="64" type="Car"/>
<vehicle depart="51.92079742823813" route="r1" id="65" type="Car"/>
<vehicle depart="53.75846609790038" route="r1" id="66" type="Car"/>
<vehicle depart="58.536106108573165" route="r1" id="67" type="Car"/>
<vehicle depart="60.835923485454614" route="r1" id="68" type="Car"/>
<vehicle depart="63.20549472891024" route="r1" id="69" type="Bus"/>
<vehicle depart="64.03640190844816" route="r1" id="70" type="Bus"/>
<vehicle depart="64.26909349627391" route="r1" id="71" type="Bus"/>
<vehicle depart="66.1655573596874" route="r1" id="72" type="Car"/>
<vehicle depart="70.79043565626804" route="r1" id="73" type="Car"/>
<vehicle depart="71.7877004247249" route="r1" id="74" type="Car"/>
<vehicle depart="71.79002357940969" route="r1" id="75" type="Bus"/>
<vehicle depart="72.14579593100589" route="r1" id="76" type="Bus"/>
<vehicle depart="75.3280555634661" route="r1" id="77" type="Bus"/>
<vehicle depart="75.68924963397394" route="r1" id="78" type="Car"/>
<vehicle depart="75.74167104086673" route="r1" id="79" type="Car"/>
<vehicle depart="75.91804953618784" route="r1" id="80" type="Bus"/>
<vehicle depart="85.17260409849568" route="r1" id="81" type="Car"/>
<vehicle depart="85.64378987554787" route="r1" id="82" type="Bus"/>
<vehicle depart="86.55897187034337" route="r1" id="83" type="Car"/>
<vehicle depart="89.45967296153565" route="r1" id="84" type="Bus"/>
<vehicle depart="90.20347328212799" route="r1" id="85" type="Car"/>
<vehicle depart="90.87776815786337" route="r1" id="86" type="Car"/>
<vehicle depart="92.36588849042694" route="r1" id="87" type="Bus"/>
<vehicle depart="96.84835060452954" route="r1" id="88" type="Bus"/>
<vehicle depart="98.73098550392396" route="r1" id="89" type="Bus"/>
<vehicle depart="100.37455131397847" route="r1" id="90" type="Car"/>
<vehicle depart="101.97774006882118" route="r1" id="91" type="Bus"/>
<vehicle depart="103.95738279390714" route="r1" id="92" type="Bus"/>
<vehicle depart="105.57860629504398" route="r1" id="93" type="Car"/>
<vehicle depart="106.16779121408916" route="r1" id="94" type="Car"/>
<vehicle depart="107.81257731661742" route="r1" id="95" type="Car"/>
<vehicle depart="107.8153559895288" route="r1" id="96" type="Car"/>
<vehicle depart="108.64937259289204" route="r1" id="97" type="Bus"/>
<vehicle depart="109.03457099814418" route="r1" id="98" type="Car"/>
<vehicle depart="109.80663948366286" route="r1" id="99" type="Car"/>
<vehicle depart="110.21052038414503" route="r1" id="100" type="Car"/>
<vehicle depart="110.89346119275767" route="r1" id="101" type="Bus"/>
<vehicle depart="114.25567087726557" route="r1" id="102" type="Car"/>
<vehicle depart="114.75342337562998" route="r1" id="103" type="Bus"/>
<vehicle depart="116.01948552818187" route="r1" id="104" type="Car"/>
<vehicle depart="116.65209427103004" route="r1" id="105" type="Car"/>
<vehicle depart="120.33869137042923" route="r1" id="106" type="Car"/>
<vehicle depart="120.47634374663703" route="r1" id="107" type="Car"/>
<vehicle depart="120.83544977652348" route="r1" id="108" type="Car"/>
<vehicle depart="121.9161901890013" route="r1" id="109" type="Bus"/>
<vehicle depart="122.06720975979589" route="r1" id="110" type="Bus"/>
<vehicle depart="123.65144330574387" route="r1" id="111" type="Bus"/>
<vehicle depart="124.96508427456936" route="r1" id="112" type="Bus"/>
<vehicle depart="125.18668025930123" route="r1" id="113" type="Car"/>
<vehicle depart="125.85141778905725" route="r1" id="114" type="Bus"/>
<vehicle depart="125.91132066688306" route="r1" id="115" type="Car"/>
<vehicle depart="128.01590382081403" route="r1" id="116" type="Car"/>
<vehicle depart="131.4545958915553" route="r1" id="117" type="Bus"/>
<vehicle depart="135.34481506462345" route="r1" id="118" type="Car"/>
<vehicle depart="135.47602431999104" route="r1" id="119" type="Car"/>
<vehicle depart="135.9440914101401" route="r1" id="120" type="Car"/>
<vehicle depart="136.83577772568538" route="r1" id="121" type="Car"/>
<vehicle depart="137.38185909327768" route="r1" id="122" type="Bus"/>
<vehicle depart="139.7974746610939" route="r1" id="123" type="Bus"/>
<vehicle depart="140.7918251998923" route="r1" id="124" type="Bus"/>
<vehicle depart="140.9970227977467" route="r1" id="125" type="Bus"/>
<vehicle depart="142.1397881119389" route="r1" id="126" type="Car"/>
<vehicle depart="144.0420247154383" route="r1" id="127" type="Car"/>
<vehicle depart="145.3209619899506" route="r1" id="128" type="Car"/>
<vehicle depart="146.6308201129191" route="r1" id="129" type="Car"/>
<vehicle depart="147.68319330758322" route="r1" id="130" type="Car"/>
<vehicle depart="148.72318224885143" route="r1" id="131" type="Car"/>
<vehicle depart="149.2457086423548" route="r1" id="132" type="Bus"/>
<vehicle depart="149.74416390064476" route="r1" id="133" type="Car"/>
<vehicle depart="152.2799004387726" route="r1" id="134" type="Bus"/>
<vehicle depart="152.36891507165316" route="r1" id="135" type="Car"/>
<vehicle depart="152.80867603628244" route="r1" id="136" type="Bus"/>
<vehicle depart="154.66787031655946" route="r1" id="137" type="Car"/>
<vehicle depart="155.20134599332764" route="r1" id="138" type="Bus"/>
<vehicle depart="156.21665066784522" route="r1" id="139" type="Car"/>
<vehicle depart="158.3548533175614" route="r1" id="140" type="Car"/>
<vehicle depart="160.71731885448378" route="r1" id="141" type="Bus"/>
<vehicle depart="162.08309520598692" route="r1" id="142" type="Car"/>
<vehicle depart="165.66049130755133" route="r1" id="143" type="Car"/>
<vehicle depart="166.24740717933878" route="r1" id="144" type="Car"/>
<vehicle depart="166.6323357079125" route="r1" id="145" type="Car"/>
<vehicle depart="169.20504794280814" route="r1" id="146" type="Car"/>
<vehicle depart="169.22512484381002" route="r1" id="147" type="Car"/>
<vehicle depart="171.28341979958964" route="r1" id="148" type="Car"/>
<vehicle depart="177.19137902944442" route="r1" id="149" type="Bus"/>
<vehicle depart="177.59675220662166" route="r1" id="150" type="Car"/>
<vehicle depart="178.9582887793643" route="r1" id="151" type="Car"/>
<vehicle depart="179.55353770594928" route="r1" id="152" type="Car"/>
<vehicle depart="179.84907209236457" route="r1" id="153" type="Car"/>
<vehicle depart="180.2264998283278" route="r1" id="154" type="Car"/>
<vehicle depart="181.10195880735182" route="r1" id="155" type="Bus"/>
<vehicle depart="181.25545771149496" route="r1" id="156" type="Car"/>
<vehicle depart="183.61095406531982" route="r1" id="157" type="Car"/>
<vehicle depart="183.85479924812972" route="r1" id="158" type="Bus"/>
<vehicle depart="185.26673457188647" route="r1" id="159" type="Car"/>
<vehicle depart="186.5983425815944" route="r1" id="160" type="Car"/>
<vehicle depart="186.62097805940223" route="r1" id="161" type="Car"/>
<vehicle depart="187.82195049337545" route="r1" id="162" type="Car"/>
<vehicle depart="190.25224337135916" route="r1" id="163" type="Bus"/>
<vehicle depart="192.31246266167364" route="r1" id="164" type="Car"/>
<vehicle depart="192.84003167171673" route="r1" id="165" type="Car"/>
<vehicle depart="194.03475211223545" route="r1" id="166" type="Car"/>
<vehicle depart="196.37421612358733" route="r1" id="167" type="Car"/>
<vehicle depart="199.5119153396418" route="r1" id="168" type="Bus"/>
<vehicle depart="200.46645766412234" route="r1" id="169" type="Car"/>
<vehicle depart="200.78149142794408" route="r1" id="170" type="Bus"/>
<vehicle depart="202.26598036640308" route="r1" id="171" type="Bus"/>
<vehicle depart="202.77197511851742" route="r1" id="172" type="Car"/>
<vehicle depart="204.88767889694347" route="r1" id="173" type="Car"/>
<vehicle depart="205.1553379225973" route="r1" id="174" type="Car"/>
<vehicle depart="206.2984422418785" route="r1" id="175" type="Car"/>
<vehicle depart="206.48576341461873" route="r1" id="176" type="Bus"/>
<vehicle depart="206.66884614782677" route="r1" id="177" type="Car"/>
<vehicle depart="207.13114839208146" route="r1" id="178" type="Car"/>
<vehicle depart="207.84605837563947" route="r1" id="179" type="Car"/>
<vehicle depart="210.235468854035" route="r1" id="180" type="Car"/>
<vehicle depart="210.82481923721917" route="r1" id="181" type="Bus"/>
<vehicle depart="212.90861689720754" route="r1" id="182" type="Car"/>
<vehicle depart="214.46720281845683" route="r1" id="183" type="Car"/>
<vehicle depart="217.2059740013533" route="r1" id="184" type="Car"/>
<vehicle depart="217.23914868401403" route="r1" id="185" type="Car"/>
<vehicle depart="218.46760520272338" route="r1" id="186" type="Bus"/>
<vehicle depart="218.92889741857385" route="r1" id="187" type="Car"/>
<vehicle depart="219.25130099082116" route="r1" id="188" type="Bus"/>
<vehicle depart="219.6555205942145" route="r1" id="189" type="Car"/>
<vehicle depart="220.50064355699706" route="r1" id="190" type="Car"/>
<vehicle depart="222.5367463528259" route="r1" id="191" type="Bus"/>
<vehicle depart="223.59194472705192" route="r1" id="192" type="Car"/>
<vehicle depart="225.1527710448154" route="r1" id="193" type="Bus"/>
<vehicle depart="227.45657333066944" route="r1" id="194" type="Bus"/>
<vehicle depart="227.61114187539619" route="r1" id="195" type="Car"/>
<vehicle depart="230.31992856987586" route="r1" id="196" type="Bus"/>
<vehicle depart="230.91800338138788" route="r1" id="197" type="Bus"/>
<vehicle depart="231.87514064725437" route="r1" id="198" type="Car"/>
<vehicle depart="235.4155526748395" route="r1" id="199" type="Car"/>
<vehicle depart="235.4912189534556" route="r1" id="200" type="Bus"/>
<vehicle depart="236.16176032015161" route="r1" id="201" type="Bus"/>
<vehicle depart="237.81146316070146" route="r1" id="202" type="Car"/>
<vehicle depart="238.23065167154726" route="r1" id="203" type="Car"/>
<vehicle depart="240.43325302086555" route="r1" id="204" type="Bus"/>
<vehicle depart="241.41551207827865" route="r1" id="205" type="Car"/>
<vehicle depart="241.7489075059953" route="r1" id="206" type="Bus"/>
<vehicle depart="241.91127943273383" route="r1" id="207" type="Bus"/>
<vehicle depart="243.05370073665463" route="r1" id="208" type="Car"/>
<vehicle depart="243.35680826123755" route="r1" id="209" type="Car"/>
<vehicle depart="245.72074652119983" route="r1" id="210" type="Car"/>
<vehicle depart="245.99174104503743" route="r1" id="211" type="Car"/>
<vehicle depart="247.88045619117187" route="r1" id="212" type="Car"/>
<vehicle depart="251.49725309262573" route="r1" id="213" type="Car"/>
<vehicle depart="252.21016057767602" route="r1" id="214" type="Car"/>
<vehicle depart="254.0684970016547" route="r1" id="215" type="Car"/>
<vehicle depart="255.65589621281578" route="r1" id="216" type="Car"/>
<vehicle depart="257.2579271774083" route="r1" id="217" type="Car"/>
<vehicle depart="260.68256523802233" route="r1" id="218" type="Car"/>
<vehicle depart="260.9631706740743" route="r1" id="219" type="Car"/>
<vehicle depart="262.3377539440391" route="r1" id="220" type="Car"/>
<vehicle depart="262.93587340218977" route="r1" id="221" type="Car"/>
<vehicle depart="263.2134276293474" route="r1" id="222" type="Car"/>
<vehicle depart="263.457584597288" route="r1" id="223" type="Bus"/>
<vehicle depart="263.5383677617155" route="r1" id="224" type="Bus"/>
<vehicle depart="264.82992692047935" route="r1" id="225" type="Car"/>
<vehicle depart="266.274070158008" route="r1" id="226" type="Car"/>
<vehicle depart="266.66703530059726" route="r1" id="227" type="Car"/>
<vehicle depart="266.94553432281606" route="r1" id="228" type="Car"/>
<vehicle depart="269.2888362932988" route="r1" id="229" type="Car"/>
<vehicle depart="270.2459690825836" route="r1" id="230" type="Car"/>
<vehicle depart="271.14758733482927" route="r1" id="231" type="Car"/>
<vehicle depart="271.46745452586646" route="r1" id="232" type="Bus"/>
<vehicle depart="274.62433686840325" route="r1" id="233" type="Car"/>
<vehicle depart="274.8569995897765" route="r1" id="234" type="Car"/>
<vehicle depart="279.46476227458146" route="r1" id="235" type="Bus"/>
<vehicle depart="279.70707410104785" route="r1" id="236" type="Car"/>
<vehicle depart="280.3128517066916" route="r1" id="237" type="Car"/>
<vehicle depart="283.8320057180001" route="r1" id="238" type="Car"/>
<vehicle depart="284.7788148040508" route="r1" id="239" type="Car"/>
<vehicle depart="286.03521320751565" route="r1" id="240" type="Bus"/>
<vehicle depart="286.3326746521158" route="r1" id="241" type="Bus"/>
<vehicle depart="286.78159651634377" route="r1" id="242" type="Car"/>
<vehicle depart="287.19750939737037" route="r1" id="243" type="Car"/>
<vehicle depart="288.0118084644768" route="r1" id="244" type="Car"/>
<vehicle depart="289.6685874832729" route="r1" id="245" type="Car"/>
<vehicle depart="290.6509454955293" route="r1" id="246" type="Bus"/>
<vehicle depart="290.7047780255789" route="r1" id="247" type="Bus"/>
<vehicle depart="292.3521551807865" route="r1" id="248" type="Car"/>
<vehicle depart="297.8716886336989" route="r1" id="249" type="Bus"/>
<vehicle depart="298.1154276758501" route="r1" id="250" type="Car"/>
<vehicle depart="298.40080565787946" route="r1" id="251" type="Car"/>
<vehicle depart="300.0180048589867" route="r1" id="252" type="Bus"/>
<vehicle depart="301.2776421759818" route="r1" id="253" type="Car"/>
<vehicle depart="303.1638939268499" route="r1" id="254" type="Car"/>
<vehicle depart="304.4218691511398" route="r1" id="255" type="Car"/>
<vehicle depart="304.6419600451717" route="r1" id="256" type="Bus"/>
<vehicle depart="305.27914960975954" route="r1" id="257" type="Bus"/>
<vehicle depart="305.7022890459204" route="r1" id="258" type="Car"/>
<vehicle depart="305.79945711712026" route="r1" id="259" type="Bus"/>
<vehicle depart="306.6219474558465" route="r1" id="260" type="Car"/>
<vehicle depart="308.32155780302617" route="r1" id="261" type="Bus"/>
<vehicle depart="309.9314382068955" route="r1" id="262" type="Bus"/>
<vehicle depart="311.40087357297136" route="r1" id="263" type="Car"/>
<vehicle depart="313.1403996073899" route="r1" id="264" type="Bus"/>
<vehicle depart="314.983048156501" route="r1" id="265" type="Bus"/>
<vehicle depart="316.1356370365992" route="r1" id="266" type="Car"/>
<vehicle depart="317.8797728254223" route="r1" id="267" type="Bus"/>
<vehicle depart="318.0832464862742" route="r1" id="268" type="Car"/>
<vehicle depart="318.32721764750534" route="r1" id="269" type="Bus"/>
<vehicle depart="318.43263878556866" route="r1" id="270" type="Car"/>
<vehicle depart="320.36080812379663" route="r1" id="271" type="Car"/>
<vehicle depart="321.23761228772764" route="r1" id="272" type="Car"/>
<vehicle depart="326.9105083737735" route="r1" id="273" type="Bus"/>
<vehicle depart="327.1255411004484" route="r1" id="274" type="Car"/>
<vehicle depart="331.99744417036493" route="r1" id="275" type="Bus"/>
<vehicle depart="332.5788234496472" route="r1" id="276" type="Car"/>
<vehicle depart="332.7378695564509" route="r1" id="277" type="Car"/>
<vehicle depart="337.0281542672154" route="r1" id="278" type="Bus"/>
<vehicle depart="337.30409887613826" route="r1" id="279" type="Car"/>
<vehicle depart="337.60761765379533" route="r1" id="280" type="Car"/>
<vehicle depart="337.76573917246293" route="r1" id="281" type="Car"/>
<vehicle depart="338.64071416817046" route="r1" id="282" type="Car"/>
<vehicle depart="338.67851277337036" route="r1" id="283" type="Bus"/>
<vehicle depart="340.3322262436544" route="r1" id="284" type="Bus"/>
<vehicle depart="340.42787203673487" route="r1" id="285" type="Car"/>
<vehicle depart="340.9344230954881" route="r1" id="286" type="Bus"/>
<vehicle depart="341.17706339899814" route="r1" id="287" type="Car"/>
<vehicle depart="341.6613940328308" route="r1" id="288" type="Car"/>
<vehicle depart="344.06113060827545" route="r1" id="289" type="Car"/>
<vehicle depart="348.1049113603194" route="r1" id="290" type="Car"/>
<vehicle depart="349.0345548161052" route="r1" id="291" type="Bus"/>
<vehicle depart="349.12226845514397" route="r1" id="292" type="Car"/>
<vehicle depart="349.4201529354388" route="r1" id="293" type="Bus"/>
<vehicle depart="352.40179660083675" route="r1" id="294" type="Car"/>
<vehicle depart="354.1266626522834" route="r1" id="295" type="Bus"/>
<vehicle depart="358.07972654999645" route="r1" id="296" type="Car"/>
<vehicle depart="358.2293031534968" route="r1" id="297" type="Car"/>
<vehicle depart="359.00092158196486" route="r1" id="298" type="Car"/>
<vehicle depart="359.3432165868496" route="r1" id="299" type="Car"/>
<vehicle depart="360.6311639437372" route="r1" id="300" type="Car"/>
<vehicle depart="361.0472262998956" route="r1" id="301" type="Car"/>
<vehicle depart="361.6478552813661" route="r1" id="302" type="Car"/>
<vehicle depart="362.3169913089926" route="r1" id="303" type="Bus"/>
<vehicle depart="362.53514366204774" route="r1" id="304" type="Car"/>
<vehicle depart="363.8388044196801" route="r1" id="305" type="Car"/>
<vehicle depart="365.9213462582622" route="r1" id="306" type="Bus"/>
<vehicle depart="366.078303532699" route="r1" id="307" type="Bus"/>
<vehicle depart="366.23641571022483" route="r1" id="308" type="Car"/>
<vehicle depart="366.481889949191" route="r1" id="309" type="Car"/>
<vehicle depart="369.7726276374286" route="r1" id="310" type="Car"/>
<vehicle depart="370.8496337344533" route="r1" id="311" type="Bus"/>
<vehicle depart="371.96774057468997" route="r1" id="312" type="Bus"/>
<vehicle depart="373.29657733919566" route="r1" id="313" type="Car"/>
<vehicle depart="373.5127429270012" route="r1" id="314" type="Car"/>
<vehicle depart="373.7953505570969" route="r1" id="315" type="Bus"/>
<vehicle depart="374.29171134253176" route="r1" id="316" type="Car"/>
<vehicle depart="375.88582599928" route="r1" id="317" type="Bus"/>
<vehicle depart="375.9019997096254" route="r1" id="318" type="Car"/>
<vehicle depart="375.96800267441057" route="r1" id="319" type="Car"/>
<vehicle depart="375.9789298783377" route="r1" id="320" type="Car"/>
<vehicle depart="377.6242540672204" route="r1" id="321" type="Car"/>
<vehicle depart="378.3789341763478" route="r1" id="322" type="Car"/>
<vehicle depart="379.19788276305644" route="r1" id="323" type="Bus"/>
<vehicle depart="379.5172959008209" route="r1" id="324" type="Car"/>
<vehicle depart="381.032656366937" route="r1" id="325" type="Car"/>
<vehicle depart="383.5998159346573" route="r1" id="326" type="Bus"/>
<vehicle depart="384.5626228689798" route="r1" id="327" type="Bus"/>
<vehicle depart="385.8833074656978" route="r1" id="328" type="Car"/>
<vehicle depart="391.4661545083803" route="r1" id="329" type="Car"/>
<vehicle depart="392.8183759817968" route="r1" id="330" type="Bus"/>
<vehicle depart="392.8487521956233" route="r1" id="331" type="Car"/>
<vehicle depart="395.6389021309459" route="r1" id="332" type="Car"/>
<vehicle depart="397.0188278611539" route="r1" id="333" type="Bus"/>
<vehicle depart="397.7228275124065" route="r1" id="334" type="Car"/>
<vehicle depart="400.2731280392223" route="r1" id="335" type="Car"/>
<vehicle depart="405.67403260720465" route="r1" id="336" type="Bus"/>
<vehicle depart="405.78660635932835" route="r1" id="337" type="Car"/>
<vehicle depart="406.42319119673505" route="r1" id="338" type="Car"/>
<vehicle depart="406.5417484086256" route="r1" id="339" type="Car"/>
<vehicle depart="409.46442661384754" route="r1" id="340" type="Car"/>
<vehicle depart="409.84483314056615" route="r1" id="341" type="Car"/>
<vehicle depart="410.17712970102303" route="r1" id="342" type="Car"/>
<vehicle depart="411.00420542198765" route="r1" id="343" type="Bus"/>
<vehicle depart="411.06537435402004" route="r1" id="344" type="Bus"/>
<vehicle depart="411.6519655335912" route="r1" id="345" type="Bus"/>
<vehicle depart="414.5809827758947" route="r1" id="346" type="Car"/>
<vehicle depart="415.37981255794455" route="r1" id="347" type="Car"/>
<vehicle depart="417.80557603800895" route="r1" id="348" type="Bus"/>
<vehicle depart="419.30059233931667" route="r1" id="349" type="Car"/>
<vehicle depart="420.03782660041463" route="r1" id="350" type="Car"/>
<vehicle depart="420.914614366816" route="r1" id="351" type="Car"/>
<vehicle depart="420.9930997195264" route="r1" id="352" type="Car"/>
<vehicle depart="421.2402256633854" route="r1" id="353" type="Bus"/>
<vehicle depart="421.47882350001777" route="r1" id="354" type="Car"/>
<vehicle depart="421.5248720394872" route="r1" id="355" type="Bus"/>
<vehicle depart="421.9283411673558" route="r1" id="356" type="Car"/>
<vehicle depart="422.41818370842395" route="r1" id="357" type="Bus"/>
<vehicle depart="422.5540172075352" route="r1" id="358" type="Bus"/>
<vehicle depart="424.49672965366307" route="r1" id="359" type="Car"/>
<vehicle depart="425.4660609837112" route="r1" id="360" type="Car"/>
<vehicle depart="425.54844210368515" route="r1" id="361" type="Bus"/>
<vehicle depart="426.3108115435638" route="r1" id="362" type="Bus"/>
<vehicle depart="426.560733908122" route="r1" id="363" type="Car"/>
<vehicle depart="427.5142195355098" route="r1" id="364" type="Bus"/>
<vehicle depart="427.7584768131725" route="r1" id="365" type="Car"/>
<vehicle depart="430.7511631850653" route="r1" id="366" type="Car"/>
<vehicle depart="436.57561630773415" route="r1" id="367" type="Car"/>
<vehicle depart="436.71670356164543" route="r1" id="368" type="Car"/>
<vehicle depart="443.1245479853619" route="r1" id="369" type="Car"/>
<vehicle depart="443.6344536282889" route="r1" id="370" type="Bus"/>
<vehicle depart="443.8918818607141" route="r1" id="371" type="Car"/>
<vehicle depart="444.7484941739597" route="r1" id="372" type="Car"/>
<vehicle depart="446.6632891953539" route="r1" id="373" type="Car"/>
<vehicle depart="447.09256691283224" route="r1" id="374" type="Car"/>
<vehicle depart="447.3746592787754" route="r1" id="375" type="Car"/>
<vehicle depart="448.47236405988724" route="r1" id="376" type="Car"/>
<vehicle depart="450.6286997204905" route="r1" id="377" type="Car"/>
<vehicle depart="452.7405227322416" route="r1" id="378" type="Car"/>
<vehicle depart="453.13694145052904" route="r1" id="379" type="Car"/>
<vehicle depart="453.158933539405" route="r1" id="380" type="Car"/>
<vehicle depart="459.0748652743929" route="r1" id="381" type="Car"/>
<vehicle depart="459.36764595514165" route="r1" id="382" type="Car"/>
<vehicle depart="461.798445515351" route="r1" id="383" type="Car"/>
<vehicle depart="462.11465765474185" route="r1" id="384" type="Bus"/>
<vehicle depart="464.7186970930822" route="r1" id="385" type="Bus"/>
<vehicle depart="465.098697417098" route="r1" id="386" type="Car"/>
<vehicle depart="465.6164162658043" route="r1" id="387" type="Car"/>
<vehicle depart="465.89053318614515" route="r1" id="388" type="Car"/>
<vehicle depart="466.48891684693217" route="r1" id="389" type="Car"/>
<vehicle depart="467.0574960375746" route="r1" id="390" type="Bus"/>
<vehicle depart="467.15112982610106" route="r1" id="391" type="Car"/>
<vehicle depart="467.322804901557" route="r1" id="392" type="Car"/>
<vehicle depart="469.21183977589976" route="r1" id="393" type="Car"/>
<vehicle depart="469.5371360895005" route="r1" id="394" type="Car"/>
<vehicle depart="470.3421840743234" route="r1" id="395" type="Car"/>
<vehicle depart="471.0116258707403" route="r1" id="396" type="Bus"/>
<vehicle depart="472.8822543666634" route="r1" id="397" type="Bus"/>
<vehicle depart="473.71268138933783" route="r1" id="398" type="Car"/>
<vehicle depart="475.2535465975819" route="r1" id="399" type="Car"/>
<vehicle depart="476.8005357378767" route="r1" id="400" type="Bus"/>
<vehicle depart="479.60423958620987" route="r1" id="401" type="Bus"/>
<vehicle depart="481.1493524139711" route="r1" id="402" type="Car"/>
<vehicle depart="483.4028785258209" route="r1" id="403" type="Car"/>
<vehicle depart="483.6827979604392" route="r1" id="404" type="Car"/>
<vehicle depart="485.722333334708" route="r1" id="405" type="Car"/>
<vehicle depart="486.67339175923127" route="r1" id="406" type="Bus"/>
<vehicle depart="486.80172694406855" route="r1" id="407" type="Car"/>
<vehicle depart="488.03553492111627" route="r1" id="408" type="Bus"/>
<vehicle depart="488.86723849238786" route="r1" id="409" type="Bus"/>
<vehicle depart="489.5913578910038" route="r1" id="410" type="Car"/>
<vehicle depart="490.1440026252501" route="r1" id="411" type="Bus"/>
<vehicle depart="491.21813767029454" route="r1" id="412" type="Car"/>
<vehicle depart="491.5812094543073" route="r1" id="413" type="Car"/>
<vehicle depart="492.2042108154528" route="r1" id="414" type="Bus"/>
<vehicle depart="493.75970135677863" route="r1" id="415" type="Car"/>
<vehicle depart="494.24428441555267" route="r1" id="416" type="Bus"/>
<vehicle depart="495.2881608628573" route="r1" id="417" type="Car"/>
<vehicle depart="495.6883567101769" route="r1" id="418" type="Car"/>
<vehicle depart="497.78217880088465" route="r1" id="419" type="Car"/>
<vehicle depart="498.57773401605334" route="r1" id="420" type="Car"/>
<vehicle depart="498.69243673178966" route="r1" id="421" type="Car"/>
<vehicle depart="502.68012358841014" route="r1" id="422" type="Car"/>