<routes>
<vType accel="2.5" decel="5.0" id="Car" length="5.0" maxSpeed="40" sigma="0.0" carFollowModel="IDM"/>
<vType accel="1.5" decel="4.0" id="Bus" length="18.0" maxSpeed="25" sigma="0.0" carFollowModel="IDM" />
<route id="r1" edges="edge1 edge2 edge3 edge4 edge5"/>
<vehicle depart="0.37085729870352246" route="r1" id="0" type="Car"/>
<vehicle depart="1.5202659115136656" route="r1" id="1" type="Car"/>
<vehicle depart="1.8186472086659657" route="r1" id="2" type="Car"/>
<vehicle depart="2.551186212185984" route="r1" id="3" type="Bus"/>
<vehicle depart="2.7712886015412295" route="r1" id="4" type="Car"/>
<vehicle depart="4.740613702855706" route="r1" id="5" type="Bus"/>
<vehicle depart="6.8045983746567895" route="r1" id="6" type="Car"/>
<vehicle depart="7.8324300712491155" route="r1" id="7" type="Bus"/>
<vehicle depart="8.69849572216955" route="r1" id="8" type="Car"/>
<vehicle depart="8.98989122323921" route="r1" id="9" type="Car"/>
<vehicle depart="9.89093444646416" route="r1" id="10" type="Car"/>
<vehicle depart="10.13452699862518" route="r1" id="11" type="Car"/>
<vehicle depart="13.35057910721246" route="r1" id="12" type="Car"/>
<vehicle depart="16.22949327199787" route="r1" id="13" type="Bus"/>
<vehicle depart="16.735195852467136" route="r1" id="14" type="Car"/>
<vehicle depart="21.70157500204414" route="r1" id="15" type="Bus"/>
<vehicle depart="22.039005572534936" route="r1" id="16" type="Car"/>
<vehicle depart="22.19150878702061" route="r1" id="17" type="Car"/>
<vehicle depart="23.88417206297931" route="r1" id="18" type="Car"/>
<vehicle depart="24.049200768335346" route="r1" id="19" type="Car"/>
<vehicle depart="24.915891151226344" route="r1" id="20" type="Bus"/>
<vehicle depart="25.880946402020243" route="r1" id="21" type="Car"/>
<vehicle depart="26.744756602670932" route="r1" id="22" type="Bus"/>
<vehicle depart="27.578570989901387" route="r1" id="23" type="Car"/>
<vehicle depart="28.553795890811614" route="r1" id="24" type="Car"/>
<vehicle depart="28.579236724952022" route="r1" id="25" type="Car"/>
<vehicle depart="32.441019213191254" route="r1" id="26" type="Bus"/>
<vehicle depart="34.92145460980831" route="r1" id="27" type="Bus"/>
<vehicle depart="35.157201030271615" route="r1" id="28" type="Car"/>
<vehicle depart="35.92080917313884" route="r1" id="29" type="Car"/>
<vehicle depart="37.0109273041296" route="r1" id="30" type="Car"/>
<vehicle depart="37.75019436043244" route="r1" id="31" type="Bus"/>
<vehicle depart="37.91051068376277" route="r1" id="32" type="Car"/>
<vehicle depart="41.163460955410336" route="r1" id="33" type="Car"/>
<vehicle depart="41.317598555532" route="r1" id="34" type="Bus"/>
<vehicle depart="41.75774634372544" route="r1" id="35" type="Car"/>
<vehicle depart="42.95783232165976" route="r1" id="36" type="Bus"/>
<vehicle depart="43.80341194008243" route="r1" id="37" type="Bus"/>
<vehicle depart="45.3210623250909" route="r1" id="38" type="Bus"/>
<vehicle depart="48.39863925002233" route="r1" id="39" type="Car"/>
<vehicle depart="49.8670825910764" route="r1" id="40" type="Bus"/>
<vehicle depart="51.65839092859743" route="r1" id="41" type="Bus"/>
<vehicle depart="54.82337071066098" route="r1" id="42" type="Bus"/>
<vehicle depart="54.96437352155099" route="r1" id="43" type="Bus"/>
<vehicle depart="54.999763509266344" route="r1" id="44" type="Car"/>
<vehicle depart="55.19415939294257" route="r1" id="45" type="Car"/>
<vehicle depart="58.52147715953343" route="r1" id="46" type="Car"/>
<vehicle depart="59.22376672689472" route="r1" id="47" type="Bus"/>
<vehicle depart="59.39913400365192" route="r1" id="48" type="Bus"/>
<vehicle depart="59.730218771078896" route="r1" id="49" type="Bus"/>
<vehicle depart="60.62717200650552" route="r1" id="50" type="Bus"/>
<vehicle depart="62.066883780678495" route="r1" id="51" type="Car"/>
<vehicle depart="64.56791766273871" route="r1" id="52" type="Bus"/>
<vehicle depart="66.18326893643084" route="r1" id="53" type="Car"/>
<vehicle depart="69.09544474478271" route="r1" id="54" type="Car"/>
<vehicle depart="69.6148347811634" route="r1" id="55" type="Car"/>
<vehicle depart="70.1435381213326" route="r1" id="56" type="Bus"/>
<vehicle depart="70.8549124515771" route="r1" id="57" type="Car"/>
<vehicle depart="71.7279540009279" route="r1" id="58" type="Bus"/>
<vehicle depart="72.9635417858241" route="r1" id="59" type="Car"/>
<vehicle depart="73.3700851385264" route="r1" id="60" type="Car"/>
<vehicle depart="73.37682374991921" route="r1" id="61" type="Car"/>
<vehicle depart="79.12528495527813" route="r1" id="62" type="Car"/>
<vehicle depart="80.80771870705837" route="r1" id="63" type="Bus"/>
<vehicle depart="82.78690187468489" route="r1" id="64" type="Car"/>
<vehicle depart="85.04894505809618" route="r1" id="65" type="Car"/>
<vehicle depart="85.84201884944929" route="r1" id="66" type="Car"/>
<vehicle depart="87.41210603855285" route="r1" id="67" type="Car"/>
<vehicle depart="89.06062470237451" route="r1" id="68" type="Car"/>
<vehicle depart="90.10999529657849" route="r1" id="69" type="Bus"/>
<vehicle depart="90.41961954246581" route="r1" id="70" type="Car"/>
<vehicle depart="91.8495849117671" route="r1" id="71" type="Car"/>
<vehicle depart="92.1174044531835" route="r1" id="72" type="Car"/>
<vehicle depart="92.61812011730625" route="r1" id="73" type="Bus"/>
<vehicle depart="93.68087976861548" route="r1" id="74" type="Car"/>
<vehicle depart="93.84549971328335" route="r1" id="75" type="Car"/>
<vehicle depart="95.73773920888847" route="r1" id="76" type="Bus"/>
<vehicle depart="95.75632505246553" route="r1" id="77" type="Car"/>
<vehicle depart="95.79991031735615" route="r1" id="78" type="Bus"/>
<vehicle depart="96.70971999311622" route="r1" id="79" type="Bus"/>
<vehicle depart="98.37456116680096" route="r1" id="80" type="Bus"/>
<vehicle depart="102.60943712027571" route="r1" id="81" type="Car"/>
<vehicle depart="104.07298166301231" route="r1" id="82" type="Bus"/>
<vehicle depart="104.14244349490038" route="r1" id="83" type="Car"/>
<vehicle depart="104.60741162097857" route="r1" id="84" type="Car"/>
<vehicle depart="104.6867080324072" route="r1" id="85" type="Bus"/>
<vehicle depart="107.53112903102324" route="r1" id="86" type="Car"/>
<vehicle depart="108.5471718527263" route="r1" id="87" type="Car"/>
<vehicle depart="108.90697320359337" route="r1" id="88" type="Bus"/>
<vehicle depart="108.95019325398107" route="r1" id="89" type="Car"/>
<vehicle depart="108.97844366769941" route="r1" id="90" type="Car"/>
<vehicle depart="110.19099577131972" route="r1" id="91" type="Bus"/>
<vehicle depart="111.43799566063468" route="r1" id="92" type="Car"/>
<vehicle depart="111.92980336518877" route="r1" id="93" type="Car"/>
<vehicle depart="112.60071996766558" route="r1" id="94" type="Car"/>
<vehicle depart="113.25880197843412" route="r1" id="95" type="Bus"/>
<vehicle depart="113.41121218839066" route="r1" id="96" type="Car"/>
<vehicle depart="114.27565826513857" route="r1" id="97" type="Bus"/>
<vehicle depart="114.80179131367791" route="r1" id="98" type="Car"/>
<vehicle depart="116.80693423163008" route="r1" id="99" type="Car"/>
<vehicle depart="117.21396077855015" route="r1" id="100" type="Car"/>
<vehicle depart="118.30113204899885" route="r1" id="101" type="Bus"/>
<vehicle depart="118.86301205145654" route="r1" id="102" type="Car"/>
<vehicle depart="119.4206210857451" route="r1" id="103" type="Car"/>
<vehicle depart="119.60552762556216" route="r1" id="104" type="Car"/>
<vehicle depart="119.76801061266828" route="r1" id="105" type="Car"/>
<vehicle depart="119.79571041266425" route="r1" id="106" type="Bus"/>
<vehicle depart="121.01936793145714" route="r1" id="107" type="Car"/>
<vehicle depart="121.16804772050016" route="r1" id="108" type="Car"/>
<vehicle depart="121.58310439450617" route="r1" id="109" type="Car"/>
<vehicle depart="123.70827599829094" route="r1" id="110" type="Car"/>
<vehicle depart="125.32800716502835" route="r1" id="111" type="Bus"/>
<vehicle depart="125.99299287087796" route="r1" id="112" type="Car"/>
<vehicle depart="127.02352373561115" route="r1" id="113" type="Bus"/>
<vehicle depart="130.19761024104812" route="r1" id="114" type="Car"/>
<vehicle depart="130.49672905629436" route="r1" id="115" type="Bus"/>
<vehicle depart="131.02895178107153" route="r1" id="116" type="Bus"/>
<vehicle depart="132.3041894437409" route="r1" id="117" type="Car"/>
<vehicle depart="132.7412285816846" route="r1" id="118" type="Car"/>
<vehicle depart="134.9287111610591" route="r1" id="119" type="Car"/>
<vehicle depart="135.50257001372196" route="r1" id="120" type="Car"/>
<vehicle depart="136.17999641128972" route="r1" id="121" type="Bus"/>
<vehicle depart="136.97743709707" route="r1" id="122" type="Car"/>
<vehicle depart="137.3090460639067" route="r1" id="123" type="Car"/>
<vehicle depart="137.84706559908955" route="r1" id="124" type="Bus"/>
<vehicle depart="138.53846971662722" route="r1" id="125" type="Car"/>
<vehicle depart="141.82598394592102" route="r1" id="126" type="Bus"/>
<vehicle depart="143.52326459093928" route="r1" id="127" type="Car"/>
<vehicle depart="143.85913279731636" route="r1" id="128" type="Car"/>
<vehicle depart="145.78650469338083" route="r1" id="129" type="Bus"/>
<vehicle depart="147.0807009651443" route="r1" id="130" type="Car"/>
<vehicle depart="151.800677729208" route="r1" id="131" type="Car"/>
<vehicle depart="153.8247306616869" route="r1" id="132" type="Car"/>
<vehicle depart="154.88361543314087" route="r1" id="133" type="Bus"/>
<vehicle depart="155.6939207501668" route="r1" id="134" type="Car"/>
<vehicle depart="156.0368058948814" route="r1" id="135" type="Bus"/>
<vehicle depart="156.39332651023366" route="r1" id="136" type="Car"/>
<vehicle depart="156.87587210613557" route="r1" id="137" type="Bus"/>
<vehicle depart="158.33670564328563" route="r1" id="138" type="Car"/>
<vehicle depart="158.54491797563398" route="r1" id="139" type="Car"/>
<vehicle depart="158.57452177135957" route="r1" id="140" type="Car"/>
<vehicle depart="158.67056800481973" route="r1" id="141" type="Car"/>
<vehicle depart="158.93894300255138" route="r1" id="142" type="Bus"/>
<vehicle depart="159.1476139730887" route="r1" id="143" type="Car"/>
<vehicle depart="159.83325793356096" route="r1" id="144" type="Bus"/>
<vehicle depart="160.4245173619406" route="r1" id="145" type="Bus"/>
<vehicle depart="162.0092501575657" route="r1" id="146" type="Bus"/>
<vehicle depart="162.26682272275409" route="r1" id="147" type="Bus"/>
<vehicle depart="162.38543507133923" route="r1" id="148" type="Bus"/>
<vehicle depart="163.1583816837693" route="r1" id="149" type="Car"/>
<vehicle depart="163.27514050290458" route="r1" id="150" type="Car"/>
<vehicle depart="164.40787249995364" route="r1" id="151" type="Car"/>
<vehicle depart="165.27664844313014" route="r1" id="152" type="Car"/>
<vehicle depart="165.63698928682925" route="r1" id="153" type="Car"/>
<vehicle depart="166.96678179020648" route="r1" id="154" type="Bus"/>
<vehicle depart="168.43428640556476" route="r1" id="155" type="Bus"/>
<vehicle depart="170.17931788452177" route="r1" id="156" type="Car"/>
<vehicle depart="172.4249990553148" route="r1" id="157" type="Car"/>
<vehicle depart="173.992018810609" route="r1" id="158" type="Car"/>
<vehicle depart="178.49542289802685" route="r1" id="159" type="Car"/>
<vehicle depart="178.69540356662154" route="r1" id="160" type="Bus"/>
<vehicle depart="179.0483852528406" route="r1" id="161" type="Car"/>
<vehicle depart="180.42205593832887" route="r1" id="162" type="Car"/>
<vehicle depart="180.72183800608005" route="r1" id="163" type="Car"/>
<vehicle depart="181.92218340980634" route="r1" id="164" type="Car"/>
<vehicle depart="183.537494051536" route="r1" id="165" type="Car"/>
<vehicle depart="184.50588200012598" route="r1" id="166" type="Car"/>
<vehicle depart="186.59207240543907" route="r1" id="167" type="Bus"/>
<vehicle depart="186.99257611151808" route="r1" id="168" type="Car"/>
<vehicle depart="189.9430662997102" route="r1" id="169" type="Car"/>
<vehicle depart="191.41775656926825" route="r1" id="170" type="Car"/>
<vehicle depart="192.381226295059" route="r1" id="171" type="Car"/>
<vehicle depart="199.3047957981781" route="r1" id="172" type="Bus"/>
<vehicle depart="201.25219885731113" route="r1" id="173" type="Car"/>
<vehicle depart="201.39451302471548" route="r1" id="174" type="Bus"/>
<vehicle depart="201.49907503922813" route="r1" id="175" type="Car"/>
<vehicle depart="201.86157386303063" route="r1" id="176" type="Car"/>
<vehicle depart="206.37337523842993" route="r1" id="177" type="Car"/>
<vehicle depart="207.8017690486276" route="r1" id="178" type="Bus"/>
<vehicle depart="207.8192215028682" route="r1" id="179" type="Car"/>
<vehicle depart="208.35901538319555" route="r1" id="180" type="Car"/>
<vehicle depart="208.99082413314989" route="r1" id="181" type="Car"/>
<vehicle depart="210.99915499368618" route="r1" id="182" type="Car"/>
<vehicle depart="211.24817794980825" route="r1" id="183" type="Bus"/>
<vehicle depart="211.54849012768338" route="r1" id="184" type="Car"/>
<vehicle depart="212.42308676566603" route="r1" id="185" type="Car"/>
<vehicle depart="213.55796941183763" route="r1" id="186" type="Car"/>
<vehicle depart="215.43852371062405" route="r1" id="187" type="Bus"/>
<vehicle depart="215.57272589820045" route="r1" id="188" type="Car"/>
<vehicle depart="216.38752037015138" route="r1" id="189" type="Car"/>
<vehicle depart="217.0962846854095" route="r1" id="190" type="Car"/>
<vehicle depart="218.8998791732794" route="r1" id="191" type="Car"/>
<vehicle depart="218.9786833266541" route="r1" id="192" type="Car"/>
<vehicle depart="221.96634422693836" route="r1" id="193" type="Bus"/>
<vehicle depart="222.32550273007655" route="r1" id="194" type="Car"/>
<vehicle depart="222.49781738100629" route="r1" id="195" type="Bus"/>
<vehicle depart="222.83697321264268" route="r1" id="196" type="Car"/>
<vehicle depart="224.78278326152582" route="r1" id="197" type="Bus"/>
<vehicle depart="225.65390494760098" route="r1" id="198" type="Bus"/>
<vehicle depart="225.7807046340625" route="r1" id="199" type="Car"/>
<vehicle depart="226.3996811224803" route="r1" id="200" type="Bus"/>
<vehicle depart="227.02875599049088" route="r1" id="201" type="Car"/>
<vehicle depart="227.2731804520606" route="r1" id="202" type="Car"/>
<vehicle depart="228.8664712769324" route="r1" id="203" type="Car"/>
<vehicle depart="229.4689725807426" route="r1" id="204" type="Car"/>
<vehicle depart="231.2711350427773" route="r1" id="205" type="Bus"/>
<vehicle depart="231.7683124738894" route="r1" id="206" type="Car"/>
<vehicle depart="232.32390777428176" route="r1" id="207" type="Bus"/>
<vehicle depart="232.81160834239992" route="r1" id="208" type="Bus"/>
<vehicle depart="234.099757185757" route="r1" id="209" type="Car"/>
<vehicle depart="234.65260822943526" route="r1" id="210" type="Car"/>
<vehicle depart="235.57691971985096" route="r1" id="211" type="Car"/>
<vehicle depart="236.54871210307508" route="r1" id="212" type="Bus"/>
<vehicle depart="237.22563420538015" route="r1" id="213" type="Bus"/>
<vehicle depart="237.55213687320034" route="r1" id="214" type="Bus"/>
<vehicle depart="238.2968727533922" route="r1" id="215" type="Bus"/>
<vehicle depart="239.8159527983323" route="r1" id="216" type="Bus"/>
<vehicle depart="240.2548752887431" route="r1" id="217" type="Car"/>
<vehicle depart="242.2932505721696" route="r1" id="218" type="Car"/>
<vehicle depart="243.25264195072617" route="r1" id="219" type="Bus"/>
<vehicle depart="244.66512114756068" route="r1" id="220" type="Bus"/>
<vehicle depart="247.5514567560443" route="r1" id="221" type="Bus"/>
<vehicle depart="250.6034930239944" route="r1" id="222" type="Bus"/>
<vehicle depart="252.07015758888687" route="r1" id="223" type="Car"/>
<vehicle depart="252.14575563778777" route="r1" id="224" type="Bus"/>
<vehicle depart="253.95786177158536" route="r1" id="225" type="Car"/>
<vehicle depart="255.51916570504642" route="r1" id="226" type="Car"/>
<vehicle depart="255.79768953570002" route="r1" id="227" type="Car"/>
<vehicle depart="255.8726758654751" route="r1" id="228" type="Car"/>
<vehicle depart="257.05723930186434" route="r1" id="229" type="Car"/>
<vehicle depart="257.9186608421742" route="r1" id="230" type="Bus"/>
<vehicle depart="258.3724317851115" route="r1" id="231" type="Bus"/>
<vehicle depart="260.8874069180637" route="r1" id="232" type="Bus"/>
<vehicle depart="262.5564758328371" route="r1" id="233" type="Bus"/>
<vehicle depart="262.5638037890886" route="r1" id="234" type="Bus"/>
<vehicle depart="262.8960270770668" route="r1" id="235" type="Car"/>
<vehicle depart="263.48587864279716" route="r1" id="236" type="Car"/>
<vehicle depart="263.7076957956571" route="r1" id="237" type="Car"/>
<vehicle depart="266.1012462192851" route="r1" id="238" type="Car"/>
<vehicle depart="266.97055135106694" route="r1" id="239" type="Car"/>
<vehicle depart="267.0709976449479" route="r1" id="240" type="Car"/>
<vehicle depart="267.99753363383235" route="r1" id="241" type="Car"/>
<vehicle depart="268.17973572781284" route="r1" id="242" type="Car"/>
<vehicle depart="270.72645455079163" route="r1" id="243" type="Bus"/>
<vehicle depart="271.1864823529705" route="r1" id="244" type="Bus"/>
<vehicle depart="271.5266173262656" route="r1" id="245" type="Car"/>
<vehicle depart="272.0704300169247" route="r1" id="246" type="Car"/>
<vehicle depart="272.8793012035624" route="r1" id="247" type="Car"/>
<vehicle depart="274.79726641040435" route="r1" id="248" type="Car"/>
<vehicle depart="275.103087878317" route="r1" id="249" type="Bus"/>
<vehicle depart="277.4408943414453" route="r1" id="250" type="Car"/>
<vehicle depart="280.0808910072689" route="r1" id="251" type="Bus"/>
<vehicle depart="280.6982039076809" route="r1" id="252" type="Bus"/>
<vehicle depart="281.56630554788165" route="r1" id="253" type="Car"/>
<vehicle depart="284.5994318444709" route="r1" id="254" type="Bus"/>
<vehicle depart="284.9367041631022" route="r1" id="255" type="Car"/>
<vehicle depart="285.9023772898064" route="r1" id="256" type="Bus"/>
<vehicle depart="286.044018931835" route="r1" id="257" type="Car"/>
<vehicle depart="286.7882874840322" route="r1" id="258" type="Car"/>
<vehicle depart="287.2797011216828" route="r1" id="259" type="Bus"/>
<vehicle depart="287.8363112264957" route="r1" id="260" type="Car"/>
<vehicle depart="288.0050882469395" route="r1" id="261" type="Car"/>
<vehicle depart="288.33564959774026" route="r1" id="262" type="Car"/>
<vehicle depart="290.5596893608199" route="r1" id="263" type="Car"/>
<vehicle depart="290.82977130638017" route="r1" id="264" type="Car"/>
<vehicle depart="293.36220330240656" route="r1" id="265" type="Car"/>
<vehicle depart="295.02526899902807" route="r1" id="266" type="Car"/>
<vehicle depart="297.26510070793006" route="r1" id="267" type="Car"/>
<vehicle depart="297.3776051954418" route="r1" id="268" type="Car"/>
<vehicle depart="298.6651347008428" route="r1" id="269" type="Car"/>
<vehicle depart="299.64529538733353" route="r1" id="270" type="Car"/>
<vehicle depart="300.65501752048857" route="r1" id="271" type="Car"/>
<vehicle depart="301.25248057811217" route="r1" id="272" type="Car"/>
<vehicle depart="301.38160095700624" route="r1" id="273" type="Car"/>
<vehicle depart="301.7143079019249" route="r1" id="274" type="Car"/>
<vehicle depart="303.48401151202575" route="r1" id="275" type="Bus"/>
<vehicle depart="304.88245406024697" route="r1" id="276" type="Car"/>
<vehicle depart="305.3431031654672" route="r1" id="277" type="Car"/>
<vehicle depart="305.82062609919456" route="r1" id="278" type="Car"/>
<vehicle depart="305.85665684266326" route="r1" id="279" type="Car"/>
<vehicle depart="305.8646735102312" route="r1" id="280" type="Car"/>
<vehicle depart="306.92358187157305" route="r1" id="281" type="Car"/>
<vehicle depart="310.1229364232658" route="r1" id="282" type="Car"/>
<vehicle depart="312.21505354548304" route="r1" id="283" type="Car"/>
<vehicle depart="314.0249259763878" route="r1" id="284" type="Bus"/>
<vehicle depart="314.3584146079687" route="r1" id="285" type="Car"/>
<vehicle depart="314.45184114575113" route="r1" id="286" type="Car"/>
<vehicle depart="314.48243988552133" route="r1" id="287" type="Car"/>
<vehicle depart="316.99037439895056" route="r1" id="288" type="Car"/>
<vehicle depart="317.9920891139088" route="r1" id="289" type="Car"/>
<vehicle depart="318.3621554256721" route="r1" id="290" type="Bus"/>
<vehicle depart="320.9770606154963" route="r1" id="291" type="Car"/>
<vehicle depart="322.16210393446414" route="r1" id="292" type="Bus"/>
<vehicle depart="323.11248367114064" route="r1" id="293" type="Car"/>
<vehicle depart="325.92790573246657" route="r1" id="294" type="Bus"/>
<vehicle depart="328.2736782709966" route="r1" id="295" type="Car"/>
<vehicle depart="330.2243008538447" route="r1" id="296" type="Car"/>
<vehicle depart="330.7475852065859" route="r1" id="297" type="Car"/>
<vehicle depart="331.1032200905204" route="r1" id="298" type="Car"/>
<vehicle depart="331.67028586925096" route="r1" id="299" type="Car"/>
<vehicle depart="332.4726983771096" route="r1" id="300" type="Car"/>
<vehicle depart="335.9048346996248" route="r1" id="301" type="Car"/>
<vehicle depart="337.175736349002" route="r1" id="302" type="Car"/>
<vehicle depart="337.2125570199541" route="r1" id="303" type="Car"/>
<vehicle depart="340.2426266754822" route="r1" id="304" type="Car"/>
<vehicle depart="343.25856167233377" route="r1" id="305" type="Car"/>
<vehicle depart="344.01775893696197" route="r1" id="306" type="Bus"/>
<vehicle depart="344.1376543490464" route="r1" id="307" type="Car"/>
<vehicle depart="345.53913701426893" route="r1" id="308" type="Car"/>
<vehicle depart="348.83376971960007" route="r1" id="309" type="Car"/>
<vehicle depart="350.305347492014" route="r1" id="310" type="Car"/>
<vehicle depart="351.1857290750362" route="r1" id="311" type="Bus"/>
<vehicle depart="352.35221411834215" route="r1" id="312" type="Bus"/>
<vehicle depart="352.3716997258292" route="r1" id="313" type="Car"/>
<vehicle depart="353.3182369283066" route="r1" id="314" type="Car"/>
<vehicle depart="354.29456664590947" route="r1" id="315" type="Car"/>
<vehicle depart="354.8370344710063" route="r1" id="316" type="Car"/>
<vehicle depart="354.8641928894" route="r1" id="317" type="Bus"/>
<vehicle depart="355.33944777339366" route="r1" id="318" type="Car"/>
<vehicle depart="357.09408701095145" route="r1" id="319" type="Car"/>
<vehicle depart="357.45387975868084" route="r1" id="320" type="Car"/>
<vehicle depart="359.1927326854522" route="r1" id="321" type="Car"/>
<vehicle depart="359.52957032339606" route="r1" id="322" type="Car"/>
<vehicle depart="363.3018312741336" route="r1" id="323" type="Car"/>
<vehicle depart="363.62792084587323" route="r1" id="324" type="Car"/>
<vehicle depart="365.9746621378561" route="r1" id="325" type="Car"/>
<vehicle depart="366.1918894453858" route="r1" id="326" type="Car"/>
<vehicle depart="368.27386783662064" route="r1" id="327" type="Car"/>
<vehicle depart="368.75515069436636" route="r1" id="328" type="Bus"/>
<vehicle depart="369.0468587683317" route="r1" id="329" type="Car"/>
<vehicle depart="370.5626945822906" route="r1" id="330" type="Car"/>
<vehicle depart="371.22252867796993" route="r1" id="331" type="Car"/>
<vehicle depart="372.2815168650209" route="r1" id="332" type="Car"/>
<vehicle depart="372.42180659600047" route="r1" id="333" type="Bus"/>
<vehicle depart="375.4029894594789" route="r1" id="334" type="Bus"/>
<vehicle depart="375.81154647642177" route="r1" id="335" type="Car"/>
<vehicle depart="377.4498072737814" route="r1" id="336" type="Car"/>
<vehicle depart="379.60736582126407" route="r1" id="337" type="Car"/>
<vehicle depart="379.87665503946215" route="r1" id="338" type="Bus"/>
<vehicle depart="380.88170101197176" route="r1" id="339" type="Car"/>
<vehicle depart="383.64483795975417" route="r1" id="340" type="Bus"/>
<vehicle depart="388.3027756456303" route="r1" id="341" type="Car"/>
<vehicle depart="389.0855263955003" route="r1" id="342" type="Car"/>
<vehicle depart="389.9068007895498" route="r1" id="343" type="Car"/>
<vehicle depart="390.8007272141102" route="r1" id="344" type="Car"/>
<vehicle depart="391.2820842484686" route="r1" id="345" type="Car"/>
<vehicle depart="391.3547853839902" route="r1" id="346" type="Car"/>
<vehicle depart="391.49561592982076" route="r1" id="347" type="Car"/>
<vehicle depart="392.07326966589955" route="r1" id="348" type="Car"/>
<vehicle depart="394.85925887121783" route="r1" id="349" type="Bus"/>
<vehicle depart="395.9469826170568" route="r1" id="350" type="Car"/>
<vehicle depart="397.32748269747157" route="r1" id="351" type="Bus"/>
<vehicle depart="397.48083083444567" route="r1" id="352" type="Car"/>
<vehicle depart="400.3592546336896" route="r1" id="353" type="Bus"/>
<vehicle depart="404.7116959541849" route="r1" id="354" type="Bus"/>
<vehicle depart="406.3056322160971" route="r1" id="355" type="Car"/>
<vehicle depart="406.3160517850835" route="r1" id="356" type="Bus"/>
<vehicle depart="407.07323314456875" route="r1" id="357" type="Car"/>
<vehicle depart="407.2873516453621" route="r1" id="358" type="Car"/>
<vehicle depart="409.73881085839537" route="r1" id="359" type="Car"/>
<vehicle depart="410.51365133091576" route="r1" id="360" type="Car"/>
<vehicle depart="410.8027774240785" route="r1" id="361" type="Car"/>
<vehicle depart="411.2284751650172" route="r1" id="362" type="Bus"/>
<vehicle depart="414.7914179069979" route="r1" id="363" type="Car"/>
<vehicle depart="416.4227743781211" route="r1" id="364" type="Car"/>
<vehicle depart="418.7566982938236" route="r1" id="365" type="Car"/>
<vehicle depart="420.374911407439" route="r1" id="366" type="Car"/>
<vehicle depart="420.89586131550107" route="r1" id="367" type="Car"/>
<vehicle depart="423.7116158775031" route="r1" id="368" type="Car"/>
<vehicle depart="424.6256705772969" route="r1" id="369" type="Car"/>
<vehicle depart="425.8077080661526" route="r1" id="370" type="Bus"/>
<vehicle depart="425.91075978304264" route="r1" id="371" type="Bus"/>
<vehicle depart="428.0622607746816" route="r1" id="372" type="Car"/>
<vehicle depart="431.09114034745284" route="r1" id="373" type="Car"/>
<vehicle depart="432.4000618999285" route="r1" id="374" type="Car"/>
<vehicle depart="433.8858034611318" route="r1" id="375" type="Car"/>
<vehicle depart="434.0974963274723" route="r1" id="376" type="Car"/>
<vehicle depart="434.8955174012153" route="r1" id="377" type="Car"/>
<vehicle depart="439.74010299203246" route="r1" id="378" type="Car"/>
<vehicle depart="439.8008559936038" route="r1" id="379" type="Car"/>
<vehicle depart="441.0905651977748" route="r1" id="380" type="Car"/>
<vehicle depart="441.44010158732436" route="r1" id="381" type="Car"/>
<vehicle depart="441.59046296032443" route="r1" id="382" type="Car"/>
<vehicle depart="442.8591803449805" route="r1" id="383" type="Car"/>
<vehicle depart="443.15808284805195" route="r1" id="384" type="Car"/>
<vehicle depart="443.3731656987261" route="r1" id="385" type="Bus"/>
<vehicle depart="444.0165303975236" route="r1" id="386" type="Car"/>
<vehicle depart="446.8062909766785" route="r1" id="387" type="Car"/>
<vehicle depart="450.69961159260885" route="r1" id="388" type="Car"/>
<vehicle depart="454.27799014641545" route="r1" id="389" type="Car"/>
<vehicle depart="455.9543379731684" route="r1" id="390" type="Bus"/>
<vehicle depart="458.0927176720837" route="r1" id="391" type="Car"/>
<vehicle depart="459.1188398640941" route="r1" id="392" type="Bus"/>
<vehicle depart="459.5727637965199" route="r1" id="393" type="Car"/>
<vehicle depart="460.0779414069659" route="r1" id="394" type="Car"/>
<vehicle depart="460.0786043770222" route="r1" id="395" type="Car"/>
<vehicle depart="461.54547567972605" route="r1" id="396" type="Bus"/>
<vehicle depart="462.90336025988137" route="r1" id="397" type="Car"/>
<vehicle depart="465.5533119517877" route="r1" id="398" type="Car"/>
<vehicle depart="466.10444288413936" route="r1" id="399" type="Bus"/>
<vehicle depart="467.3923985857669" route="r1" id="400" type="Bus"/>
<vehicle depart="469.3935077430782" route="r1" id="401" type="Bus"/>
<vehicle depart="472.66607881272296" route="r1" id="402" type="Car"/>
<vehicle depart="473.8529466893246" route="r1" id="403" type="Car"/>
<vehicle depart="474.04024796281453" route="r1" id="404" type="Bus"/>
<vehicle depart="477.99115339654867" route="r1" id="405" type="Bus"/>
<vehicle depart="479.6935653065499" route="r1" id="406" type="Bus"/>
<vehicle depart="488.52567575991725" route="r1" id="407" type="Bus"/>
<vehicle depart="489.14895496178093" route="r1" id="408" type="Car"/>
<vehicle depart="495.29992811469157" route="r1" id="409" type="Car"/>
<vehicle depart="496.1942996818621" route="r1" id="410" type="Bus"/>
<vehicle depart="498.4093617353314" route="r1" id="411" type="Bus"/>
<vehicle depart="499.63203344143864" route="r1" id="412" type="Car"/>
<vehicle depart="500.19053765647595" route="r1" id="413" type="Car"/>
<vehicle depart="501.18140186229584" route="r1" id="414" type="Car"/>
<vehicle depart="501.53392639235045" route="r1" id="415" type="Car"/>
<vehicle depart="502.4732706271854" route="r1" id="416" type="Bus"/>
<vehicle depart="502.6050374703454" route="r1" id="417" type="Car"/>
<vehicle depart="504.4204835095644" route="r1" id="418" type="Car"/>
<vehicle depart="505.27428018838935" route="r1" id="419" type="Car"/>
<vehicle depart="505.4065005452626" route="r1" id="420" type="Car"/>
<vehicle depart="507.02339492311626" route="r1" id="421" type="Car"/>
<vehicle depart="507.2917788120082" route="r1" id="422" type="Car"/>