<routes>
<vType accel="2.5" decel="5.0" id="Car" length="5.0" maxSpeed="40" sigma="0.0" carFollowModel="IDM"/>
<vType accel="1.5" decel="4.0" id="Bus" length="18.0" maxSpeed="25" sigma="0.0" carFollowModel="IDM" />
<route id="r1" edges="edge1 edge2 edge3 edge4 edge5"/>
<vehicle depart="3.7767491126875044" route="r1" id="0" type="Car"/>
<vehicle depart="4.4341516887648975" route="r1" id="1" type="Car"/>
<vehicle depart="6.260393916055943" route="r1" id="2" type="Car"/>
<vehicle depart="6.772336136422334" route="r1" id="3" type="Bus"/>
<vehicle depart="7.478079371299927" route="r1" id="4" type="Car"/>
<vehicle depart="8.937160255480947" route="r1" id="5" type="Bus"/>
<vehicle depart="12.034899474912494" route="r1" id="6" type="Car"/>
<vehicle depart="13.566097194754288" route="r1" id="7" type="Bus"/>
<vehicle depart="13.662123747947263" route="r1" id="8" type="Car"/>
<vehicle depart="14.642622930417376" route="r1" id="9" type="Car"/>
<vehicle depart="15.184005704372597" route="r1" id="10" type="Car"/>
<vehicle depart="15.97372230343935" route="r1" id="11" type="Car"/>
<vehicle depart="16.357430432302646" route="r1" id="12" type="Car"/>
<vehicle depart="19.328476578126683" route="r1" id="13" type="Car"/>
<vehicle depart="20.04186299532515" route="r1" id="14" type="Bus"/>
<vehicle depart="21.8320338248801" route="r1" id="15" type="Car"/>
<vehicle depart="23.343547204331696" route="r1" id="16" type="Bus"/>
<vehicle depart="24.650902750091603" route="r1" id="17" type="Car"/>
<vehicle depart="26.754543175021297" route="r1" id="18" type="Car"/>
<vehicle depart="27.105163570011715" route="r1" id="19" type="Bus"/>
<vehicle depart="31.160916915663428" route="r1" id="20" type="Car"/>
<vehicle depart="31.968932717766943" route="r1" id="21" type="Car"/>
<vehicle depart="33.12765043353063" route="r1" id="22" type="Car"/>
<vehicle depart="33.38289237484913" route="r1" id="23" type="Car"/>
<vehicle depart="33.801698021784034" route="r1" id="24" type="Car"/>
<vehicle depart="34.47573676398123" route="r1" id="25" type="Car"/>
<vehicle depart="36.422672995110425" route="r1" id="26" type="Car"/>
<vehicle depart="38.11235795569987" route="r1" id="27" type="Car"/>
<vehicle depart="38.625620724528964" route="r1" id="28" type="Car"/>
<vehicle depart="39.56462748562013" route="r1" id="29" type="Car"/>
<vehicle depart="40.73898607178998" route="r1" id="30" type="Car"/>
<vehicle depart="41.40522185903915" route="r1" id="31" type="Bus"/>
<vehicle depart="45.792697973755836" route="r1" id="32" type="Car"/>
<vehicle depart="48.588261008203695" route="r1" id="33" type="Bus"/>
<vehicle depart="55.764060839100054" route="r1" id="34" type="Car"/>
<vehicle depart="58.57189374466275" route="r1" id="35" type="Bus"/>
<vehicle depart="58.99023884494417" route="r1" id="36" type="Car"/>
<vehicle depart="59.2712176895513" route="r1" id="37" type="Car"/>
<vehicle depart="59.82390756121608" route="r1" id="38" type="Car"/>
<vehicle depart="61.33195432696003" route="r1" id="39" type="Car"/>
<vehicle depart="61.58478871032179" route="r1" id="40" type="Car"/>
<vehicle depart="62.19051402123" route="r1" id="41" type="Car"/>
<vehicle depart="62.213006656214475" route="r1" id="42" type="Car"/>
<vehicle depart="63.74645377314311" route="r1" id="43" type="Car"/>
<vehicle depart="65.25413558459996" route="r1" id="44" type="Car"/>
<vehicle depart="65.51139175010618" route="r1" id="45" type="Bus"/>
<vehicle depart="66.48740030341001" route="r1" id="46" type="Car"/>
<vehicle depart="68.44856417672842" route="r1" id="47" type="Car"/>
<vehicle depart="69.38723739650648" route="r1" id="48" type="Bus"/>
<vehicle depart="69.70275930515471" route="r1" id="49" type="Car"/>
<vehicle depart="71.55548921941669" route="r1" id="50" type="Car"/>
<vehicle depart="74.52765911369096" route="r1" id="51" type="Car"/>
<vehicle depart="76.6865837345226" route="r1" id="52" type="Car"/>
<vehicle depart="77.37762096216524" route="r1" id="53" type="Car"/>
<vehicle depart="78.16239383842351" route="r1" id="54" type="Car"/>
<vehicle depart="79.75461957175426" route="r1" id="55" type="Bus"/>
<vehicle depart="82.09472392415348" route="r1" id="56" type="Bus"/>
<vehicle depart="82.34748263938098" route="r1" id="57" type="Bus"/>
<vehicle depart="82.59658531685598" route="r1" id="58" type="Car"/>
<vehicle depart="85.3302788414141" route="r1" id="59" type="Bus"/>
<vehicle depart="86.39884140885552" route="r1" id="60" type="Bus"/>
<vehicle depart="90.6356079789366" route="r1" id="61" type="Car"/>
<vehicle depart="91.62659392223269" route="r1" id="62" type="Bus"/>
<vehicle depart="96.59866106731461" route="r1" id="63" type="Bus"/>
<vehicle depart="99.74868632607664" route="r1" id="64" type="Bus"/>
<vehicle depart="102.54801345765834" route="r1" id="65" type="Car"/>
<vehicle depart="102.63740274324226" route="r1" id="66" type="Car"/>
<vehicle depart="104.06184799626345" route="r1" id="67" type="Car"/>
<vehicle depart="105.38166878202986" route="r1" id="68" type="Car"/>
<vehicle depart="107.08630596944727" route="r1" id="69" type="Bus"/>
<vehicle depart="107.93074134577368" route="r1" id="70" type="Car"/>
<vehicle depart="107.99523937915204" route="r1" id="71" type="Bus"/>
<vehicle depart="108.37045296253456" route="r1" id="72" type="Car"/>
<vehicle depart="108.95691085802467" route="r1" id="73" type="Car"/>
<vehicle depart="112.32004345683714" route="r1" id="74" type="Car"/>
<vehicle depart="112.54778586741" route="r1" id="75" type="Car"/>
<vehicle depart="112.5796692628027" route="r1" id="76" type="Car"/>
<vehicle depart="112.58994812341253" route="r1" id="77" type="Car"/>
<vehicle depart="113.82320459462497" route="r1" id="78" type="Car"/>
<vehicle depart="114.55943933852356" route="r1" id="79" type="Car"/>
<vehicle depart="114.83978612704468" route="r1" id="80" type="Bus"/>
<vehicle depart="115.68074752334056" route="r1" id="81" type="Car"/>
<vehicle depart="116.00517818403203" route="r1" id="82" type="Car"/>
<vehicle depart="116.64802529349635" route="r1" id="83" type="Car"/>
<vehicle depart="121.5930009814031" route="r1" id="84" type="Car"/>
<vehicle depart="121.82142418698389" route="r1" id="85" type="Car"/>
<vehicle depart="122.20032150425195" route="r1" id="86" type="Bus"/>
<vehicle depart="124.22561349134537" route="r1" id="87" type="Bus"/>
<vehicle depart="124.32438738122642" route="r1" id="88" type="Car"/>
<vehicle depart="127.86964900740844" route="r1" id="89" type="Car"/>
<vehicle depart="130.06723723307687" route="r1" id="90" type="Car"/>
<vehicle depart="130.7487395029975" route="r1" id="91" type="Car"/>
<vehicle depart="131.49075700298314" route="r1" id="92" type="Bus"/>
<vehicle depart="131.53641026125027" route="r1" id="93" type="Car"/>
<vehicle depart="131.9360887011605" route="r1" id="94" type="Car"/>
<vehicle depart="133.90813791988313" route="r1" id="95" type="Car"/>
<vehicle depart="135.36330526029212" route="r1" id="96" type="Car"/>
<vehicle depart="135.4095852939896" route="r1" id="97" type="Car"/>
<vehicle depart="136.48925893563768" route="r1" id="98" type="Bus"/>
<vehicle depart="137.02446034055524" route="r1" id="99" type="Car"/>
<vehicle depart="141.0731121926819" route="r1" id="100" type="Bus"/>
<vehicle depart="143.02769482396897" route="r1" id="101" type="Bus"/>
<vehicle depart="143.36275268300514" route="r1" id="102" type="Bus"/>
<vehicle depart="144.9412719974593" route="r1" id="103" type="Car"/>
<vehicle depart="153.06399112890318" route="r1" id="104" type="Car"/>
<vehicle depart="153.62154039504966" route="r1" id="105" type="Car"/>
<vehicle depart="154.22868160616582" route="r1" id="106" type="Bus"/>
<vehicle depart="156.4962277203489" route="r1" id="107" type="Car"/>
<vehicle depart="157.03192457838085" route="r1" id="108" type="Car"/>
<vehicle depart="157.725983688047" route="r1" id="109" type="Car"/>
<vehicle depart="158.2810061964477" route="r1" id="110" type="Bus"/>
<vehicle depart="160.2411578220316" route="r1" id="111" type="Car"/>
<vehicle depart="160.31711289131553" route="r1" id="112" type="Bus"/>
<vehicle depart="161.83493560071594" route="r1" id="113" type="Car"/>
<vehicle depart="161.9357137557887" route="r1" id="114" type="Bus"/>
<vehicle depart="164.33931681631913" route="r1" id="115" type="Car"/>
<vehicle depart="169.05992995687626" route="r1" id="116" type="Car"/>
<vehicle depart="169.51881434354797" route="r1" id="117" type="Bus"/>
<vehicle depart="170.91362492138006" route="r1" id="118" type="Car"/>
<vehicle depart="171.51948543253917" route="r1" id="119" type="Car"/>
<vehicle depart="171.8379263126956" route="r1" id="120" type="Bus"/>
<vehicle depart="173.80733023198846" route="r1" id="121" type="Car"/>
<vehicle depart="174.49037262493118" route="r1" id="122" type="Car"/>
<vehicle depart="175.53668966048292" route="r1" id="123" type="Car"/>
<vehicle depart="176.2130350068014" route="r1" id="124" type="Car"/>
<vehicle depart="176.3772155508028" route="r1" id="125" type="Bus"/>
<vehicle depart="177.84327823623653" route="r1" id="126" type="Car"/>
<vehicle depart="178.87219092324753" route="r1" id="127" type="Bus"/>
<vehicle depart="178.9207646502054" route="r1" id="128" type="Bus"/>
<vehicle depart="180.6735081240069" route="r1" id="129" type="Car"/>
<vehicle depart="186.98350913529475" route="r1" id="130" type="Car"/>
<vehicle depart="190.2679723198096" route="r1" id="131" type="Car"/>
<vehicle depart="192.35185360957493" route="r1" id="132" type="Car"/>
<vehicle depart="192.72531567527295" route="r1" id="133" type="Bus"/>
<vehicle depart="193.71962647024512" route="r1" id="134" type="Car"/>
<vehicle depart="195.5591582439373" route="r1" id="135" type="Car"/>
<vehicle depart="199.3562144487231" route="r1" id="136" type="Car"/>
<vehicle depart="199.6088817164515" route="r1" id="137" type="Bus"/>
<vehicle depart="203.8614677258702" route="r1" id="138" type="Car"/>
<vehicle depart="206.50414315561179" route="r1" id="139" type="Bus"/>
<vehicle depart="207.75786815517375" route="r1" id="140" type="Bus"/>
<vehicle depart="208.29384350653373" route="r1" id="141" type="Bus"/>
<vehicle depart="209.4773145364892" route="r1" id="142" type="Bus"/>
<vehicle depart="210.46053374839218" route="r1" id="143" type="Car"/>
<vehicle depart="211.0784719103657" route="r1" id="144" type="Car"/>
<vehicle depart="211.17688452783847" route="r1" id="145" type="Car"/>
<vehicle depart="211.55064527694165" route="r1" id="146" type="Car"/>
<vehicle depart="214.98831442048058" route="r1" id="147" type="Car"/>
<vehicle depart="217.0194639434006" route="r1" id="148" type="Bus"/>
<vehicle depart="217.87772405385792" route="r1" id="149" type="Bus"/>
<vehicle depart="221.89874048156062" route="r1" id="150" type="Car"/>
<vehicle depart="222.20896372258153" route="r1" id="151" type="Car"/>
<vehicle depart="226.79267479891726" route="r1" id="152" type="Car"/>
<vehicle depart="227.61289310946086" route="r1" id="153" type="Car"/>
<vehicle depart="228.00909315497918" route="r1" id="154" type="Car"/>
<vehicle depart="229.36430043184652" route="r1" id="155" type="Car"/>
<vehicle depart="231.23376150655434" route="r1" id="156" type="Car"/>
<vehicle depart="232.36843144733845" route="r1" id="157" type="Car"/>
<vehicle depart="233.1814930512208" route="r1" id="158" type="Bus"/>
<vehicle depart="233.2722662779909" route="r1" id="159" type="Car"/>
<vehicle depart="233.33018732493082" route="r1" id="160" type="Bus"/>
<vehicle depart="233.61103905400267" route="r1" id="161" type="Car"/>
<vehicle depart="233.64399024547694" route="r1" id="162" type="Car"/>
<vehicle depart="235.14401563573406" route="r1" id="163" type="Car"/>
<vehicle depart="235.2175067100383" route="r1" id="164" type="Car"/>
<vehicle depart="235.98603004044347" route="r1" id="165" type="Car"/>
<vehicle depart="239.65798074301773" route="r1" id="166" type="Bus"/>
<vehicle depart="239.8390058665923" route="r1" id="167" type="Car"/>
<vehicle depart="240.67526251276766" route="r1" id="168" type="Bus"/>
<vehicle depart="241.43445029373032" route="r1" id="169" type="Car"/>
<vehicle depart="242.42332277875065" route="r1" id="170" type="Car"/>
<vehicle depart="242.8278705476691" route="r1" id="171" type="Car"/>
<vehicle depart="242.99423242474086" route="r1" id="172" type="Car"/>
<vehicle depart="245.65301345200027" route="r1" id="173" type="Bus"/>
<vehicle depart="246.91951100755412" route="r1" id="174" type="Bus"/>
<vehicle depart="247.1082395891859" route="r1" id="175" type="Car"/>
<vehicle depart="247.49522316898071" route="r1" id="176" type="Bus"/>
<vehicle depart="248.57165275446246" route="r1" id="177" type="Bus"/>
<vehicle depart="249.53149150209597" route="r1" id="178" type="Car"/>
<vehicle depart="249.94509634327918" route="r1" id="179" type="Car"/>
<vehicle depart="251.20842245772837" route="r1" id="180" type="Car"/>
<vehicle depart="251.7338959599505" route="r1" id="181" type="Car"/>
<vehicle depart="253.1274894495942" route="r1" id="182" type="Car"/>
<vehicle depart="254.19136941978647" route="r1" id="183" type="Car"/>
<vehicle depart="255.2037266316085" route="r1" id="184" type="Car"/>
<vehicle depart="255.40250967638187" route="r1" id="185" type="Bus"/>
<vehicle depart="261.1440986519618" route="r1" id="186" type="Bus"/>
<vehicle depart="262.1797911449449" route="r1" id="187" type="Car"/>
<vehicle depart="263.08882472904713" route="r1" id="188" type="Car"/>
<vehicle depart="263.1446781684117" route="r1" id="189" type="Car"/>
<vehicle depart="263.5447406067386" route="r1" id="190" type="Car"/>
<vehicle depart="263.93014912170486" route="r1" id="191" type="Car"/>
<vehicle depart="264.250624338644" route="r1" id="192" type="Car"/>
<vehicle depart="264.5296354491993" route="r1" id="193" type="Bus"/>
<vehicle depart="265.36203862902846" route="r1" id="194" type="Car"/>
<vehicle depart="267.3704408836757" route="r1" id="195" type="Bus"/>
<vehicle depart="269.8061669426989" route="r1" id="196" type="Bus"/>
<vehicle depart="270.76227652297797" route="r1" id="197" type="Car"/>
<vehicle depart="271.05419253069573" route="r1" id="198" type="Car"/>
<vehicle depart="271.12605085562785" route="r1" id="199" type="Car"/>
<vehicle depart="271.2971944139166" route="r1" id="200" type="Bus"/>
<vehicle depart="271.79597851797257" route="r1" id="201" type="Bus"/>
<vehicle depart="272.3481156394529" route="r1" id="202" type="Bus"/>
<vehicle depart="275.98565742731296" route="r1" id="203" type="Car"/>
<vehicle depart="278.5743698994938" route="r1" id="204" type="Car"/>
<vehicle depart="280.4466226338303" route="r1" id="205" type="Car"/>
<vehicle depart="281.67486212365094" route="r1" id="206" type="Car"/>
<vehicle depart="285.63999373659175" route="r1" id="207" type="Car"/>
<vehicle depart="286.1081056075925" route="r1" id="208" type="Bus"/>
<vehicle depart="286.95394025928414" route="r1" id="209" type="Car"/>
<vehicle depart="287.9023131914627" route="r1" id="210" type="Car"/>
<vehicle depart="288.3454789125084" route="r1" id="211" type="Car"/>
<vehicle depart="289.6071474731224" route="r1" id="212" type="Car"/>
<vehicle depart="291.32787440794516" route="r1" id="213" type="Car"/>
<vehicle depart="293.53778678280713" route="r1" id="214" type="Car"/>
<vehicle depart="294.05522739253354" route="r1" id="215" type="Car"/>
<vehicle depart="294.0749784019345" route="r1" id="216" type="Bus"/>
<vehicle depart="294.98565279883" route="r1" id="217" type="Car"/>
<vehicle depart="295.0574116953906" route="r1" id="218" type="Car"/>
<vehicle depart="296.1552651626632" route="r1" id="219" type="Car"/>
<vehicle depart="298.4224547978411" route="r1" id="220" type="Car"/>
<vehicle depart="300.1518475329093" route="r1" id="221" type="Car"/>
<vehicle depart="300.2261709906795" route="r1" id="222" type="Bus"/>
<vehicle depart="304.45323520835507" route="r1" id="223" type="Car"/>
<vehicle depart="305.92113795678375" route="r1" id="224" type="Car"/>
<vehicle depart="306.95482133452117" route="r1" id="225" type="Car"/>
<vehicle depart="307.36412670643364" route="r1" id="226" type="Car"/>
<vehicle depart="309.1478328680629" route="r1" id="227" type="Car"/>
<vehicle depart="314.13096849278026" route="r1" id="228" type="Car"/>
<vehicle depart="317.738836263063" route="r1" id="229" type="Car"/>
<vehicle depart="318.4405983729713" route="r1" id="230" type="Bus"/>
<vehicle depart="319.9202300585275" route="r1" id="231" type="Car"/>
<vehicle depart="320.9652351786352" route="r1" id="232" type="Car"/>
<vehicle depart="322.98473953365396" route="r1" id="233" type="Car"/>
<vehicle depart="323.8809411348927" route="r1" id="234" type="Car"/>
<vehicle depart="325.62344659040724" route="r1" id="235" type="Car"/>
<vehicle depart="331.9458050700793" route="r1" id="236" type="Car"/>
<vehicle depart="332.6404983651324" route="r1" id="237" type="Car"/>
<vehicle depart="332.67245466391756" route="r1" id="238" type="Bus"/>
<vehicle depart="333.7289569991588" route="r1" id="239" type="Car"/>
<vehicle depart="334.1888767481385" route="r1" id="240" type="Bus"/>
<vehicle depart="334.1900415511681" route="r1" id="241" type="Car"/>
<vehicle depart="335.43530647041905" route="r1" id="242" type="Car"/>
<vehicle depart="336.8666530024135" route="r1" id="243" type="Car"/>
<vehicle depart="338.203537403555" route="r1" id="244" type="Car"/>
<vehicle depart="339.257451829451" route="r1" id="245" type="Car"/>
<vehicle depart="341.1851832879272" route="r1" id="246" type="Car"/>
<vehicle depart="341.7782763945665" route="r1" id="247" type="Car"/>
<vehicle depart="343.38278746918786" route="r1" id="248" type="Car"/>
<vehicle depart="343.734121028934" route="r1" id="249" type="Car"/>
<vehicle depart="344.18593520293325" route="r1" id="250" type="Car"/>
<vehicle depart="347.5320639422278" route="r1" id="251" type="Car"/>
<vehicle depart="347.8405839000678" route="r1" id="252" type="Car"/>
<vehicle depart="349.10146633545617" route="r1" id="253" type="Car"/>
<vehicle depart="350.89596838160077" route="r1" id="254" type="Car"/>
<vehicle depart="353.08556066075994" route="r1" id="255" type="Car"/>
<vehicle depart="355.3598805150766" route="r1" id="256" type="Bus"/>
<vehicle depart="356.7128626621086" route="r1" id="257" type="Bus"/>
<vehicle depart="357.82212576060454" route="r1" id="258" type="Bus"/>
<vehicle depart="358.2373068005337" route="r1" id="259" type="Bus"/>
<vehicle depart="359.0791849832128" route="r1" id="260" type="Bus"/>
<vehicle depart="360.6306565823633" route="r1" id="261" type="Car"/>
<vehicle depart="361.03039825999093" route="r1" id="262" type="Car"/>
<vehicle depart="362.6364455945307" route="r1" id="263" type="Bus"/>
<vehicle depart="362.644169728756" route="r1" id="264" type="Car"/>
<vehicle depart="364.6372291643498" route="r1" id="265" type="Car"/>
<vehicle depart="365.72240567878276" route="r1" id="266" type="Car"/>
<vehicle depart="365.760039711378" route="r1" id="267" type="Bus"/>
<vehicle depart="366.376009670122" route="r1" id="268" type="Car"/>
<vehicle depart="367.203598137385" route="r1" id="269" type="Bus"/>
<vehicle depart="367.9115063338672" route="r1" id="270" type="Car"/>
<vehicle depart="369.84538072797" route="r1" id="271" type="Car"/>
<vehicle depart="369.88877499420573" route="r1" id="272" type="Car"/>
<vehicle depart="371.15660541263395" route="r1" id="273" type="Bus"/>
<vehicle depart="372.7711259665768" route="r1" id="274" type="Car"/>
<vehicle depart="372.8856341339707" route="r1" id="275" type="Car"/>
<vehicle depart="373.5307477968112" route="r1" id="276" type="Car"/>
<vehicle depart="377.5401381526057" route="r1" id="277" type="Car"/>
<vehicle depart="380.9791581340349" route="r1" id="278" type="Car"/>
<vehicle depart="383.1142926652202" route="r1" id="279" type="Car"/>
<vehicle depart="383.4965367212982" route="r1" id="280" type="Car"/>
<vehicle depart="386.4728875199597" route="r1" id="281" type="Car"/>
<vehicle depart="387.4453152245939" route="r1" id="282" type="Car"/>
<vehicle depart="389.47750243458336" route="r1" id="283" type="Car"/>
<vehicle depart="390.0381765628161" route="r1" id="284" type="Car"/>
<vehicle depart="390.35360248224003" route="r1" id="285" type="Bus"/>
<vehicle depart="390.35997926053903" route="r1" id="286" type="Bus"/>
<vehicle depart="391.1068045039151" route="r1" id="287" type="Car"/>
<vehicle depart="391.43941151237146" route="r1" id="288" type="Car"/>
<vehicle depart="392.32123501176426" route="r1" id="289" type="Car"/>
<vehicle depart="395.1620566785577" route="r1" id="290" type="Car"/>
<vehicle depart="398.4177704356054" route="r1" id="291" type="Car"/>
<vehicle depart="399.22852806426164" route="r1" id="292" type="Car"/>
<vehicle depart="400.22045472989174" route="r1" id="293" type="Car"/>
<vehicle depart="400.4244256697447" route="r1" id="294" type="Car"/>
<vehicle depart="400.59002035248795" route="r1" id="295" type="Car"/>
<vehicle depart="400.819776254598" route="r1" id="296" type="Car"/>
<vehicle depart="402.3706401298274" route="r1" id="297" type="Car"/>
<vehicle depart="402.79109324163966" route="r1" id="298" type="Car"/>
<vehicle depart="403.9354106040807" route="r1" id="299" type="Car"/>
<vehicle depart="404.2274647755233" route="r1" id="300" type="Car"/>
<vehicle depart="407.0560053625951" route="r1" id="301" type="Car"/>
<vehicle depart="407.1688117116103" route="r1" id="302" type="Car"/>
<vehicle depart="410.6969527879771" route="r1" id="303" type="Car"/>
<vehicle depart="411.0784981328883" route="r1" id="304" type="Bus"/>
<vehicle depart="411.5760000869235" route="r1" id="305" type="Bus"/>
<vehicle depart="411.78766401088563" route="r1" id="306" type="Car"/>
<vehicle depart="412.0228121357751" route="r1" id="307" type="Car"/>
<vehicle depart="412.71344083263585" route="r1" id="308" type="Car"/>
<vehicle depart="413.20624268577353" route="r1" id="309" type="Bus"/>
<vehicle depart="413.5489671095405" route="r1" id="310" type="Car"/>
<vehicle depart="414.3744483135486" route="r1" id="311" type="Bus"/>
<vehicle depart="414.4922624861628" route="r1" id="312" type="Car"/>
<vehicle depart="416.7934651090042" route="r1" id="313" type="Car"/>
<vehicle depart="417.36122406807164" route="r1" id="314" type="Bus"/>
<vehicle depart="417.9062941337245" route="r1" id="315" type="Car"/>
<vehicle depart="418.67833756847244" route="r1" id="316" type="Bus"/>
<vehicle depart="418.93360338773874" route="r1" id="317" type="Car"/>
<vehicle depart="420.0946039578931" route="r1" id="318" type="Car"/>
<vehicle depart="420.44041321107215" route="r1" id="319" type="Car"/>
<vehicle depart="423.90388756205476" route="r1" id="320" type="Car"/>
<vehicle depart="424.99544349443954" route="r1" id="321" type="Car"/>
<vehicle depart="426.1879044661472" route="r1" id="322" type="Car"/>
<vehicle depart="426.37061405385026" route="r1" id="323" type="Car"/>
<vehicle depart="427.06246294176003" route="r1" id="324" type="Car"/>
<vehicle depart="428.6079350626004" route="r1" id="325" type="Car"/>
<vehicle depart="428.8845551733972" route="r1" id="326" type="Car"/>
<vehicle depart="429.37563804272" route="r1" id="327" type="Car"/>
<vehicle depart="429.5901025274712" route="r1" id="328" type="Car"/>
<vehicle depart="429.64811395433884" route="r1" id="329" type="Car"/>
<vehicle depart="430.21561286545636" route="r1" id="330" type="Car"/>
<vehicle depart="430.28674227768147" route="r1" id="331" type="Car"/>
<vehicle depart="431.7992552827284" route="r1" id="332" type="Car"/>
<vehicle depart="432.75796660488663" route="r1" id="333" type="Car"/>
<vehicle depart="438.04735356593744" route="r1" id="334" type="Bus"/>
<vehicle depart="444.6572447550766" route="r1" id="335" type="Bus"/>
<vehicle depart="444.8643625497572" route="r1" id="336" type="Car"/>
<vehicle depart="445.0865764760487" route="r1" id="337" type="Car"/>
<vehicle depart="448.1461849085268" route="r1" id="338" type="Car"/>
<vehicle depart="450.7935980531799" route="r1" id="339" type="Car"/>
<vehicle depart="451.6767864984674" route="r1" id="340" type="Bus"/>
<vehicle depart="452.5543047476813" route="r1" id="341" type="Bus"/>
<vehicle depart="452.81743014853566" route="r1" id="342" type="Bus"/>
<vehicle depart="453.58123308600074" route="r1" id="343" type="Car"/>
<vehicle depart="455.4105392266292" route="r1" id="344" type="Bus"/>
<vehicle depart="456.71008533481455" route="r1" id="345" type="Car"/>
<vehicle depart="460.5296257132343" route="r1" id="346" type="Bus"/>
<vehicle depart="460.6398299693608" route="r1" id="347" type="Car"/>
<vehicle depart="460.92240156822066" route="r1" id="348" type="Car"/>
<vehicle depart="464.08151375851105" route="r1" id="349" type="Car"/>
<vehicle depart="464.5114077291063" route="r1" id="350" type="Car"/>
<vehicle depart="466.15989168725025" route="r1" id="351" type="Car"/>
<vehicle depart="466.61195038028205" route="r1" id="352" type="Car"/>
<vehicle depart="467.6326175949785" route="r1" id="353" type="Car"/>
<vehicle depart="469.541557733693" route="r1" id="354" type="Car"/>
<vehicle depart="470.441401558682" route="r1" id="355" type="Car"/>
<vehicle depart="471.01639059511115" route="r1" id="356" type="Car"/>
<vehicle depart="471.6415324914625" route="r1" id="357" type="Car"/>
<vehicle depart="473.1464885637138" route="r1" id="358" type="Car"/>
<vehicle depart="476.3656615922459" route="r1" id="359" type="Car"/>
<vehicle depart="477.0891113317227" route="r1" id="360" type="Car"/>
<vehicle depart="477.97642091698134" route="r1" id="361" type="Car"/>
<vehicle depart="478.2391985493913" route="r1" id="362" type="Bus"/>
<vehicle depart="478.47929501696694" route="r1" id="363" type="Car"/>
<vehicle depart="478.76307323555915" route="r1" id="364" type="Bus"/>
<vehicle depart="478.9134768109486" route="r1" id="365" type="Car"/>
<vehicle depart="479.41884116333915" route="r1" id="366" type="Car"/>
<vehicle depart="482.82259580463307" route="r1" id="367" type="Bus"/>
<vehicle depart="486.2856081200229" route="r1" id="368" type="Bus"/>
<vehicle depart="486.70248867466285" route="r1" id="369" type="Car"/>
<vehicle depart="487.5120110416041" route="r1" id="370" type="Bus"/>
<vehicle depart="487.78218790753283" route="r1" id="371" type="Car"/>
<vehicle depart="490.8021571891109" route="r1" id="372" type="Car"/>
<vehicle depart="491.76462604679" route="r1" id="373" type="Car"/>
<vehicle depart="494.04724732140875" route="r1" id="374" type="Bus"/>
<vehicle depart="494.2896825007643" route="r1" id="375" type="Bus"/>
<vehicle depart="496.71596156961294" route="r1" id="376" type="Bus"/>
<vehicle depart="497.03671756568275" route="r1" id="377" type="Car"/>
<vehicle depart="498.5973682274193" route="r1" id="378" type="Car"/>
<vehicle depart="499.7535710070251" route="r1" id="379" type="Car"/>
<vehicle depart="501.3333151973711" route="r1" id="380" type="Car"/>
<vehicle depart="502.2199983935649" route="r1" id="381" type="Car"/>
<vehicle depart="506.9674458184825" route="r1" id="382" type="Car"/>
<vehicle depart="508.65249830613476" route="r1" id="383" type="Bus"/>
<vehicle depart="508.8331946050869" route="r1" id="384" type="Car"/>
<vehicle depart="510.21283404318547" route="r1" id="385" type="Car"/>
<vehicle depart="511.17298101200345" route="r1" id="386" type="Car"/>
<vehicle depart="511.30591710501335" route="r1" id="387" type="Car"/>
<vehicle depart="511.4081590960981" route="r1" id="388" type="Car"/>
<vehicle depart="512.5100830327112" route="r1" id="389" type="Car"/>
<vehicle depart="513.02857364134" route="r1" id="390" type="Car"/>
<vehicle depart="513.5337486693273" route="r1" id="391" type="Bus"/>
<vehicle depart="513.9350017557099" route="r1" id="392" type="Car"/>
<vehicle depart="517.3145557819964" route="r1" id="393" type="Bus"/>
<vehicle depart="518.9945613850732" route="r1" id="394" type="Car"/>
<vehicle depart="520.598169922011" route="r1" id="395" type="Car"/>
<vehicle depart="520.9184556047428" route="r1" id="396" type="Bus"/>
<vehicle depart="520.9412956002856" route="r1" id="397" type="Bus"/>
<vehicle depart="521.208558227878" route="r1" id="398" type="Car"/>
<vehicle depart="521.2672819735687" route="r1" id="399" type="Car"/>
<vehicle depart="526.0091433225635" route="r1" id="400" type="Car"/>
<vehicle depart="529.4863914133712" route="r1" id="401" type="Car"/>
<vehicle depart="530.2062927265499" route="r1" id="402" type="Car"/>
<vehicle depart="530.4207372160416" route="r1" id="403" type="Car"/>
<vehicle depart="530.7956596976558" route="r1" id="404" type="Car"/>
<vehicle depart="530.9332668679613" route="r1" id="405" type="Bus"/>
<vehicle depart="531.0224194627044" route="r1" id="406" type="Car"/>
<vehicle depart="533.218136356014" route="r1" id="407" type="Car"/>
<vehicle depart="535.315128563435" route="r1" id="408" type="Car"/>
<vehicle depart="537.2541310614823" route="r1" id="409" type="Bus"/>
<vehicle depart="537.4849038132786" route="r1" id="410" type="Bus"/>
<vehicle depart="541.1197621128069" route="r1" id="411" type="Bus"/>
<vehicle depart="541.8238177058621" route="r1" id="412" type="Bus"/>
<vehicle depart="543.2113966949081" route="r1" id="413" type="Car"/>
<vehicle depart="545.2643734638717" route="r1" id="414" type="Bus"/>
<vehicle depart="547.5255209301464" route="r1" id="415" type="Car"/>
<vehicle depart="549.6332854330585" route="r1" id="416" type="Bus"/>
<vehicle depart="550.8588126776634" route="r1" id="417" type="Car"/>
<vehicle depart="554.3541524114655" route="r1" id="418" type="Car"/>
<vehicle depart="554.3889800453572" route="r1" id="419" type="Car"/>
<vehicle depart="555.219190727591" route="r1" id="420" type="Bus"/>
<vehicle depart="555.432425313701" route="r1" id="421" type="Car"/>
<vehicle depart="560.7263294942175" route="r1" id="422" type="Bus"/>
<vehicle depart="561.0925923860023" route="r1" id="423" type="Car"/>