<routes>
<vType accel="2.5" decel="5.0" id="Car" length="5.0" maxSpeed="19.44" sigma="0.0" carFollowModel="IDM"/>
<vType accel="1.5" decel="4.0" id="Bus" length="18.0" maxSpeed="19.44" sigma="0.0" carFollowModel="IDM" />
<route id="r1" edges="edge1 edge2 edge3 edge4 edge5"/>
<vehicle depart="0.20184298903601047" route="r1" id="0" type="Car" departSpeed="5" departLane="free"/>
<vehicle depart="0.38096478503551967" route="r1" id="1" type="Car" departSpeed="5" departLane="free"/>
<vehicle depart="0.5164793285203896" route="r1" id="2" type="Bus" departSpeed="5" departLane="free"/>
<vehicle depart="0.7436075041559174" route="r1" id="3" type="Car" departSpeed="5" departLane="free"/>
<vehicle depart="1.4760976670759494" route="r1" id="4" type="Bus" departSpeed="5" departLane="free"/>
<vehicle depart="2.0427175545919116" route="r1" id="5" type="Car" departSpeed="5" departLane="free"/>
<vehicle depart="4.071839672666075" route="r1" id="6" type="Car" departSpeed="5" departLane="free"/>
<vehicle depart="5.140413342606802" route="r1" id="7" type="Car" departSpeed="5" departLane="free"/>
<vehicle depart="5.333380464589261" route="r1" id="8" type="Bus" departSpeed="5" departLane="free"/>
<vehicle depart="5.974039574280714" route="r1" id="9" type="Bus" departSpeed="5" departLane="free"/>
<vehicle depart="6.020715037434083" route="r1" id="10" type="Car" departSpeed="5" departLane="free"/>
<vehicle depart="6.8760715087590905" route="r1" id="11" type="Car" departSpeed="5" departLane="free"/>
<vehicle depart="11.51990535165362" route="r1" id="12" type="Car" departSpeed="5" departLane="free"/>
<vehicle depart="11.61697411453182" route="r1" id="13" type="Car" departSpeed="5" departLane="free"/>
<vehicle depart="11.759316933763534" route="r1" id="14" type="Car" departSpeed="5" departLane="free"/>
<vehicle depart="11.776465696991092" route="r1" id="15" type="Bus" departSpeed="5" departLane="free"/>
<vehicle depart="12.578629280652306" route="r1" id="16" type="Bus" departSpeed="5" departLane="free"/>
<vehicle depart="17.09569955057051" route="r1" id="17" type="Car" departSpeed="5" departLane="free"/>
<vehicle depart="17.293911389094646" route="r1" id="18" type="Car" departSpeed="5" departLane="free"/>
<vehicle depart="18.247731973798754" route="r1" id="19" type="Car" departSpeed="5" departLane="free"/>
<vehicle depart="18.401274640978148" route="r1" id="20" type="Car" departSpeed="5" departLane="free"/>
<vehicle depart="18.81374433903823" route="r1" id="21" type="Car" departSpeed="5" departLane="free"/>
<vehicle depart="18.848883213102503" route="r1" id="22" type="Car" departSpeed="5" departLane="free"/>
<vehicle depart="19.692203430192404" route="r1" id="23" type="Car" departSpeed="5" departLane="free"/>
<vehicle depart="21.734011361503075" route="r1" id="24" type="Bus" departSpeed="5" departLane="free"/>
<vehicle depart="22.67984758548744" route="r1" id="25" type="Car" departSpeed="5" departLane="free"/>
<vehicle depart="25.253748075012332" route="r1" id="26" type="Car" departSpeed="5" departLane="free"/>
<vehicle depart="26.856930101285336" route="r1" id="27" type="Bus" departSpeed="5" departLane="free"/>
<vehicle depart="27.279953762831436" route="r1" id="28" type="Car" departSpeed="5" departLane="free"/>
<vehicle depart="28.1542300890386" route="r1" id="29" type="Bus" departSpeed="5" departLane="free"/>
<vehicle depart="29.40939181753691" route="r1" id="30" type="Car" departSpeed="5" departLane="free"/>
<vehicle depart="29.736454924059966" route="r1" id="31" type="Bus" departSpeed="5" departLane="free"/>
<vehicle depart="30.259303080563157" route="r1" id="32" type="Car" departSpeed="5" departLane="free"/>
<vehicle depart="30.32158922904727" route="r1" id="33" type="Bus" departSpeed="5" departLane="free"/>
<vehicle depart="30.51462062047635" route="r1" id="34" type="Car" departSpeed="5" departLane="free"/>
<vehicle depart="30.581255358209074" route="r1" id="35" type="Car" departSpeed="5" departLane="free"/>
<vehicle depart="30.999231156100695" route="r1" id="36" type="Car" departSpeed="5" departLane="free"/>
<vehicle depart="32.30504292627946" route="r1" id="37" type="Bus" departSpeed="5" departLane="free"/>
<vehicle depart="35.63655201992936" route="r1" id="38" type="Bus" departSpeed="5" departLane="free"/>
<vehicle depart="37.34390578320734" route="r1" id="39" type="Car" departSpeed="5" departLane="free"/>
<vehicle depart="38.45726319644954" route="r1" id="40" type="Bus" departSpeed="5" departLane="free"/>
<vehicle depart="39.76014629462104" route="r1" id="41" type="Car" departSpeed="5" departLane="free"/>
<vehicle depart="39.99015504276854" route="r1" id="42" type="Car" departSpeed="5" departLane="free"/>
<vehicle depart="43.145880765181815" route="r1" id="43" type="Car" departSpeed="5" departLane="free"/>
<vehicle depart="44.42898013472877" route="r1" id="44" type="Bus" departSpeed="5" departLane="free"/>
<vehicle depart="45.343403625311865" route="r1" id="45" type="Bus" departSpeed="5" departLane="free"/>
<vehicle depart="46.07071277313286" route="r1" id="46" type="Car" departSpeed="5" departLane="free"/>
<vehicle depart="46.6655458250919" route="r1" id="47" type="Car" departSpeed="5" departLane="free"/>
<vehicle depart="47.45832667594133" route="r1" id="48" type="Car" departSpeed="5" departLane="free"/>
<vehicle depart="47.84176178294788" route="r1" id="49" type="Bus" departSpeed="5" departLane="free"/>
<vehicle depart="48.53192154120029" route="r1" id="50" type="Car" departSpeed="5" departLane="free"/>
<vehicle depart="49.57720769903854" route="r1" id="51" type="Car" departSpeed="5" departLane="free"/>
<vehicle depart="51.30210081591022" route="r1" id="52" type="Car" departSpeed="5" departLane="free"/>
<vehicle depart="53.985338657348926" route="r1" id="53" type="Car" departSpeed="5" departLane="free"/>
<vehicle depart="54.15142319368934" route="r1" id="54" type="Car" departSpeed="5" departLane="free"/>
<vehicle depart="57.312237023727405" route="r1" id="55" type="Car" departSpeed="5" departLane="free"/>
<vehicle depart="61.129773618251434" route="r1" id="56" type="Car" departSpeed="5" departLane="free"/>
<vehicle depart="61.39114782449639" route="r1" id="57" type="Bus" departSpeed="5" departLane="free"/>
<vehicle depart="62.366024187436" route="r1" id="58" type="Car" departSpeed="5" departLane="free"/>
<vehicle depart="63.84367110659824" route="r1" id="59" type="Bus" departSpeed="5" departLane="free"/>
<vehicle depart="64.18491320917458" route="r1" id="60" type="Car" departSpeed="5" departLane="free"/>
<vehicle depart="64.9465981045124" route="r1" id="61" type="Car" departSpeed="5" departLane="free"/>
<vehicle depart="65.10238785390285" route="r1" id="62" type="Car" departSpeed="5" departLane="free"/>
<vehicle depart="65.7200286703024" route="r1" id="63" type="Car" departSpeed="5" departLane="free"/>
<vehicle depart="66.0247065593302" route="r1" id="64" type="Bus" departSpeed="5" departLane="free"/>
<vehicle depart="67.91198305980913" route="r1" id="65" type="Car" departSpeed="5" departLane="free"/>
<vehicle depart="68.02169812369767" route="r1" id="66" type="Car" departSpeed="5" departLane="free"/>
<vehicle depart="71.64285356684701" route="r1" id="67" type="Car" departSpeed="5" departLane="free"/>
<vehicle depart="71.84805509387239" route="r1" id="68" type="Car" departSpeed="5" departLane="free"/>
<vehicle depart="71.8567035051034" route="r1" id="69" type="Car" departSpeed="5" departLane="free"/>
<vehicle depart="73.63759107024568" route="r1" id="70" type="Car" departSpeed="5" departLane="free"/>
<vehicle depart="74.04280931132716" route="r1" id="71" type="Car" departSpeed="5" departLane="free"/>
<vehicle depart="74.17870176968418" route="r1" id="72" type="Car" departSpeed="5" departLane="free"/>
<vehicle depart="75.3460555153525" route="r1" id="73" type="Car" departSpeed="5" departLane="free"/>
<vehicle depart="78.04960517289052" route="r1" id="74" type="Car" departSpeed="5" departLane="free"/>
<vehicle depart="78.08776321535362" route="r1" id="75" type="Car" departSpeed="5" departLane="free"/>
<vehicle depart="79.2266546684784" route="r1" id="76" type="Car" departSpeed="5" departLane="free"/>
<vehicle depart="79.25339478909983" route="r1" id="77" type="Car" departSpeed="5" departLane="free"/>
<vehicle depart="81.25339610901298" route="r1" id="78" type="Bus" departSpeed="5" departLane="free"/>
<vehicle depart="82.26785806383" route="r1" id="79" type="Car" departSpeed="5" departLane="free"/>
<vehicle depart="82.33240948847595" route="r1" id="80" type="Car" departSpeed="5" departLane="free"/>
<vehicle depart="82.71045420633556" route="r1" id="81" type="Car" departSpeed="5" departLane="free"/>
<vehicle depart="82.87425409898907" route="r1" id="82" type="Car" departSpeed="5" departLane="free"/>
<vehicle depart="83.15979382405897" route="r1" id="83" type="Car" departSpeed="5" departLane="free"/>
<vehicle depart="85.13986017175894" route="r1" id="84" type="Car" departSpeed="5" departLane="free"/>
<vehicle depart="89.75987375543828" route="r1" id="85" type="Car" departSpeed="5" departLane="free"/>
<vehicle depart="90.30499178261516" route="r1" id="86" type="Car" departSpeed="5" departLane="free"/>
<vehicle depart="91.37160033991225" route="r1" id="87" type="Bus" departSpeed="5" departLane="free"/>
<vehicle depart="97.49613571466826" route="r1" id="88" type="Bus" departSpeed="5" departLane="free"/>
<vehicle depart="99.93786473716393" route="r1" id="89" type="Car" departSpeed="5" departLane="free"/>
<vehicle depart="102.51840281462655" route="r1" id="90" type="Car" departSpeed="5" departLane="free"/>
<vehicle depart="102.60889405959564" route="r1" id="91" type="Bus" departSpeed="5" departLane="free"/>
<vehicle depart="103.94595867604384" route="r1" id="92" type="Bus" departSpeed="5" departLane="free"/>
<vehicle depart="104.18298373337593" route="r1" id="93" type="Car" departSpeed="5" departLane="free"/>
<vehicle depart="104.51415422953782" route="r1" id="94" type="Car" departSpeed="5" departLane="free"/>
<vehicle depart="106.04955162934782" route="r1" id="95" type="Bus" departSpeed="5" departLane="free"/>
<vehicle depart="106.9851886210933" route="r1" id="96" type="Bus" departSpeed="5" departLane="free"/>
<vehicle depart="107.44688074086851" route="r1" id="97" type="Car" departSpeed="5" departLane="free"/>
<vehicle depart="107.75011566569596" route="r1" id="98" type="Car" departSpeed="5" departLane="free"/>
<vehicle depart="108.41369171289753" route="r1" id="99" type="Car" departSpeed="5" departLane="free"/>
<vehicle depart="111.01588950378867" route="r1" id="100" type="Car" departSpeed="5" departLane="free"/>
<vehicle depart="111.63165343498575" route="r1" id="101" type="Car" departSpeed="5" departLane="free"/>
<vehicle depart="113.66313154862327" route="r1" id="102" type="Car" departSpeed="5" departLane="free"/>
<vehicle depart="114.91312791075008" route="r1" id="103" type="Bus" departSpeed="5" departLane="free"/>
<vehicle depart="115.14980584346829" route="r1" id="104" type="Car" departSpeed="5" departLane="free"/>
<vehicle depart="115.1690652598046" route="r1" id="105" type="Car" departSpeed="5" departLane="free"/>
<vehicle depart="115.4342482596358" route="r1" id="106" type="Bus" departSpeed="5" departLane="free"/>
<vehicle depart="117.93524252424984" route="r1" id="107" type="Car" departSpeed="5" departLane="free"/>
<vehicle depart="118.36544489236204" route="r1" id="108" type="Car" departSpeed="5" departLane="free"/>
<vehicle depart="120.36105595923003" route="r1" id="109" type="Car" departSpeed="5" departLane="free"/>
<vehicle depart="121.94830121709855" route="r1" id="110" type="Car" departSpeed="5" departLane="free"/>
<vehicle depart="122.3732732353868" route="r1" id="111" type="Car" departSpeed="5" departLane="free"/>
<vehicle depart="125.45931712983835" route="r1" id="112" type="Car" departSpeed="5" departLane="free"/>
<vehicle depart="127.12181040684789" route="r1" id="113" type="Car" departSpeed="5" departLane="free"/>
<vehicle depart="128.06945949919" route="r1" id="114" type="Bus" departSpeed="5" departLane="free"/>
<vehicle depart="128.16386169242494" route="r1" id="115" type="Car" departSpeed="5" departLane="free"/>
<vehicle depart="128.43986598353754" route="r1" id="116" type="Bus" departSpeed="5" departLane="free"/>
<vehicle depart="128.83027651878905" route="r1" id="117" type="Bus" departSpeed="5" departLane="free"/>
<vehicle depart="132.15755729907204" route="r1" id="118" type="Car" departSpeed="5" departLane="free"/>
<vehicle depart="132.22399907143767" route="r1" id="119" type="Car" departSpeed="5" departLane="free"/>
<vehicle depart="132.38567838233595" route="r1" id="120" type="Car" departSpeed="5" departLane="free"/>
<vehicle depart="134.46769225409412" route="r1" id="121" type="Car" departSpeed="5" departLane="free"/>
<vehicle depart="134.77324165347602" route="r1" id="122" type="Car" departSpeed="5" departLane="free"/>
<vehicle depart="138.1118254565469" route="r1" id="123" type="Car" departSpeed="5" departLane="free"/>
<vehicle depart="139.71415079604955" route="r1" id="124" type="Car" departSpeed="5" departLane="free"/>
<vehicle depart="142.45793897191317" route="r1" id="125" type="Bus" departSpeed="5" departLane="free"/>
<vehicle depart="145.65186520877873" route="r1" id="126" type="Bus" departSpeed="5" departLane="free"/>
<vehicle depart="146.030097288396" route="r1" id="127" type="Car" departSpeed="5" departLane="free"/>
<vehicle depart="147.2075189539678" route="r1" id="128" type="Bus" departSpeed="5" departLane="free"/>
<vehicle depart="148.1800618011859" route="r1" id="129" type="Car" departSpeed="5" departLane="free"/>
<vehicle depart="148.31546202652868" route="r1" id="130" type="Bus" departSpeed="5" departLane="free"/>
<vehicle depart="148.51789816610483" route="r1" id="131" type="Car" departSpeed="5" departLane="free"/>
<vehicle depart="148.68418496819106" route="r1" id="132" type="Car" departSpeed="5" departLane="free"/>
<vehicle depart="150.01670014754882" route="r1" id="133" type="Car" departSpeed="5" departLane="free"/>
<vehicle depart="150.2830929385592" route="r1" id="134" type="Car" departSpeed="5" departLane="free"/>
<vehicle depart="153.39807378057466" route="r1" id="135" type="Bus" departSpeed="5" departLane="free"/>
<vehicle depart="154.90089740185067" route="r1" id="136" type="Car" departSpeed="5" departLane="free"/>
<vehicle depart="155.69683808980315" route="r1" id="137" type="Bus" departSpeed="5" departLane="free"/>
<vehicle depart="157.36928473152287" route="r1" id="138" type="Car" departSpeed="5" departLane="free"/>
<vehicle depart="157.9702675804497" route="r1" id="139" type="Car" departSpeed="5" departLane="free"/>
<vehicle depart="159.07943174296838" route="r1" id="140" type="Car" departSpeed="5" departLane="free"/>
<vehicle depart="164.3772257359309" route="r1" id="141" type="Bus" departSpeed="5" departLane="free"/>
<vehicle depart="169.0061252485365" route="r1" id="142" type="Car" departSpeed="5" departLane="free"/>
<vehicle depart="171.56750885534325" route="r1" id="143" type="Car" departSpeed="5" departLane="free"/>
<vehicle depart="173.79469451038236" route="r1" id="144" type="Car" departSpeed="5" departLane="free"/>
<vehicle depart="176.28572194701866" route="r1" id="145" type="Bus" departSpeed="5" departLane="free"/>
<vehicle depart="180.25974729197867" route="r1" id="146" type="Car" departSpeed="5" departLane="free"/>
<vehicle depart="182.4669625524308" route="r1" id="147" type="Car" departSpeed="5" departLane="free"/>
<vehicle depart="185.2918212148881" route="r1" id="148" type="Car" departSpeed="5" departLane="free"/>
<vehicle depart="185.7808137850962" route="r1" id="149" type="Car" departSpeed="5" departLane="free"/>
<vehicle depart="186.50425678353457" route="r1" id="150" type="Car" departSpeed="5" departLane="free"/>
<vehicle depart="187.09573879354195" route="r1" id="151" type="Car" departSpeed="5" departLane="free"/>
<vehicle depart="187.28005989725526" route="r1" id="152" type="Bus" departSpeed="5" departLane="free"/>
<vehicle depart="187.5645503733532" route="r1" id="153" type="Car" departSpeed="5" departLane="free"/>
<vehicle depart="188.12619442685346" route="r1" id="154" type="Car" departSpeed="5" departLane="free"/>
<vehicle depart="189.39458054056522" route="r1" id="155" type="Car" departSpeed="5" departLane="free"/>
<vehicle depart="191.5724259938723" route="r1" id="156" type="Car" departSpeed="5" departLane="free"/>
<vehicle depart="191.83820852460755" route="r1" id="157" type="Car" departSpeed="5" departLane="free"/>
<vehicle depart="193.6494531824548" route="r1" id="158" type="Car" departSpeed="5" departLane="free"/>
<vehicle depart="194.38748484542492" route="r1" id="159" type="Bus" departSpeed="5" departLane="free"/>
<vehicle depart="194.80777980733814" route="r1" id="160" type="Car" departSpeed="5" departLane="free"/>
<vehicle depart="196.06745124754974" route="r1" id="161" type="Car" departSpeed="5" departLane="free"/>
<vehicle depart="197.01992702575367" route="r1" id="162" type="Car" departSpeed="5" departLane="free"/>
<vehicle depart="199.32373848996295" route="r1" id="163" type="Car" departSpeed="5" departLane="free"/>
<vehicle depart="202.11453621523458" route="r1" id="164" type="Car" departSpeed="5" departLane="free"/>
<vehicle depart="202.65425915444519" route="r1" id="165" type="Car" departSpeed="5" departLane="free"/>
<vehicle depart="204.63786179753254" route="r1" id="166" type="Car" departSpeed="5" departLane="free"/>
<vehicle depart="205.4884344491837" route="r1" id="167" type="Car" departSpeed="5" departLane="free"/>
<vehicle depart="207.1423496959665" route="r1" id="168" type="Car" departSpeed="5" departLane="free"/>
<vehicle depart="207.54599244336677" route="r1" id="169" type="Car" departSpeed="5" departLane="free"/>
<vehicle depart="208.72579791056316" route="r1" id="170" type="Car" departSpeed="5" departLane="free"/>
<vehicle depart="208.82151113745766" route="r1" id="171" type="Car" departSpeed="5" departLane="free"/>
<vehicle depart="211.54773515481168" route="r1" id="172" type="Car" departSpeed="5" departLane="free"/>
<vehicle depart="216.23253114034802" route="r1" id="173" type="Car" departSpeed="5" departLane="free"/>
<vehicle depart="216.4019069485238" route="r1" id="174" type="Car" departSpeed="5" departLane="free"/>
<vehicle depart="218.27962948234028" route="r1" id="175" type="Car" departSpeed="5" departLane="free"/>
<vehicle depart="218.49213598608918" route="r1" id="176" type="Bus" departSpeed="5" departLane="free"/>
<vehicle depart="218.9979840076869" route="r1" id="177" type="Car" departSpeed="5" departLane="free"/>
<vehicle depart="219.49967650388433" route="r1" id="178" type="Bus" departSpeed="5" departLane="free"/>
<vehicle depart="219.57257958597822" route="r1" id="179" type="Car" departSpeed="5" departLane="free"/>
<vehicle depart="220.39162614105246" route="r1" id="180" type="Car" departSpeed="5" departLane="free"/>
<vehicle depart="223.0971168051679" route="r1" id="181" type="Car" departSpeed="5" departLane="free"/>
<vehicle depart="223.42237689685615" route="r1" id="182" type="Car" departSpeed="5" departLane="free"/>
<vehicle depart="225.65958035434593" route="r1" id="183" type="Car" departSpeed="5" departLane="free"/>
<vehicle depart="226.40290539759923" route="r1" id="184" type="Car" departSpeed="5" departLane="free"/>
<vehicle depart="226.75097773748283" route="r1" id="185" type="Car" departSpeed="5" departLane="free"/>
<vehicle depart="227.81288507951567" route="r1" id="186" type="Car" departSpeed="5" departLane="free"/>
<vehicle depart="229.35982022551977" route="r1" id="187" type="Bus" departSpeed="5" departLane="free"/>
<vehicle depart="231.97709454540194" route="r1" id="188" type="Bus" departSpeed="5" departLane="free"/>
<vehicle depart="233.61791780747765" route="r1" id="189" type="Bus" departSpeed="5" departLane="free"/>
<vehicle depart="236.9016131144018" route="r1" id="190" type="Bus" departSpeed="5" departLane="free"/>
<vehicle depart="237.7327537711142" route="r1" id="191" type="Car" departSpeed="5" departLane="free"/>
<vehicle depart="237.9074824078514" route="r1" id="192" type="Bus" departSpeed="5" departLane="free"/>
<vehicle depart="238.84957361361776" route="r1" id="193" type="Bus" departSpeed="5" departLane="free"/>
<vehicle depart="239.54576787154082" route="r1" id="194" type="Car" departSpeed="5" departLane="free"/>
<vehicle depart="240.6967941513004" route="r1" id="195" type="Bus" departSpeed="5" departLane="free"/>
<vehicle depart="241.07733860142417" route="r1" id="196" type="Bus" departSpeed="5" departLane="free"/>
<vehicle depart="241.30379562543936" route="r1" id="197" type="Car" departSpeed="5" departLane="free"/>
<vehicle depart="241.87791812611908" route="r1" id="198" type="Bus" departSpeed="5" departLane="free"/>
<vehicle depart="242.10995255561997" route="r1" id="199" type="Car" departSpeed="5" departLane="free"/>
<vehicle depart="243.1272882626615" route="r1" id="200" type="Car" departSpeed="5" departLane="free"/>
<vehicle depart="243.18762748167595" route="r1" id="201" type="Bus" departSpeed="5" departLane="free"/>
<vehicle depart="244.06459850648653" route="r1" id="202" type="Car" departSpeed="5" departLane="free"/>
<vehicle depart="247.54759309162299" route="r1" id="203" type="Car" departSpeed="5" departLane="free"/>
<vehicle depart="247.7805640328058" route="r1" id="204" type="Car" departSpeed="5" departLane="free"/>
<vehicle depart="251.41875537359095" route="r1" id="205" type="Car" departSpeed="5" departLane="free"/>
<vehicle depart="251.9245943983535" route="r1" id="206" type="Bus" departSpeed="5" departLane="free"/>
<vehicle depart="253.1643247896145" route="r1" id="207" type="Car" departSpeed="5" departLane="free"/>
<vehicle depart="254.9453436523664" route="r1" id="208" type="Bus" departSpeed="5" departLane="free"/>
<vehicle depart="257.81774482084336" route="r1" id="209" type="Car" departSpeed="5" departLane="free"/>
<vehicle depart="258.78314883339306" route="r1" id="210" type="Car" departSpeed="5" departLane="free"/>
<vehicle depart="260.3498556663756" route="r1" id="211" type="Car" departSpeed="5" departLane="free"/>
<vehicle depart="261.06273683165676" route="r1" id="212" type="Car" departSpeed="5" departLane="free"/>
<vehicle depart="263.18704434602216" route="r1" id="213" type="Car" departSpeed="5" departLane="free"/>
<vehicle depart="263.7949916265495" route="r1" id="214" type="Bus" departSpeed="5" departLane="free"/>
<vehicle depart="263.9236698531554" route="r1" id="215" type="Bus" departSpeed="5" departLane="free"/>
<vehicle depart="265.1151826353806" route="r1" id="216" type="Bus" departSpeed="5" departLane="free"/>
<vehicle depart="265.1472839387426" route="r1" id="217" type="Car" departSpeed="5" departLane="free"/>
<vehicle depart="266.5546870608146" route="r1" id="218" type="Car" departSpeed="5" departLane="free"/>
<vehicle depart="267.7647285275403" route="r1" id="219" type="Bus" departSpeed="5" departLane="free"/>
<vehicle depart="267.9502960317315" route="r1" id="220" type="Car" departSpeed="5" departLane="free"/>
<vehicle depart="268.393901455651" route="r1" id="221" type="Car" departSpeed="5" departLane="free"/>
<vehicle depart="268.59336684861734" route="r1" id="222" type="Car" departSpeed="5" departLane="free"/>
<vehicle depart="270.2220760522197" route="r1" id="223" type="Bus" departSpeed="5" departLane="free"/>
<vehicle depart="273.7698913673356" route="r1" id="224" type="Car" departSpeed="5" departLane="free"/>
<vehicle depart="276.27673772308793" route="r1" id="225" type="Bus" departSpeed="5" departLane="free"/>
<vehicle depart="276.5273189181161" route="r1" id="226" type="Car" departSpeed="5" departLane="free"/>
<vehicle depart="281.49005493510043" route="r1" id="227" type="Bus" departSpeed="5" departLane="free"/>
<vehicle depart="284.02001749701753" route="r1" id="228" type="Bus" departSpeed="5" departLane="free"/>
<vehicle depart="284.0385766364101" route="r1" id="229" type="Car" departSpeed="5" departLane="free"/>
<vehicle depart="284.3706009183094" route="r1" id="230" type="Bus" departSpeed="5" departLane="free"/>
<vehicle depart="284.6105612278647" route="r1" id="231" type="Car" departSpeed="5" departLane="free"/>
<vehicle depart="284.92094883918116" route="r1" id="232" type="Car" departSpeed="5" departLane="free"/>
<vehicle depart="285.77407328607956" route="r1" id="233" type="Car" departSpeed="5" departLane="free"/>
<vehicle depart="286.92361575989116" route="r1" id="234" type="Car" departSpeed="5" departLane="free"/>
<vehicle depart="288.01620578286094" route="r1" id="235" type="Car" departSpeed="5" departLane="free"/>
<vehicle depart="288.9205259357162" route="r1" id="236" type="Car" departSpeed="5" departLane="free"/>
<vehicle depart="289.7187856099197" route="r1" id="237" type="Car" departSpeed="5" departLane="free"/>
<vehicle depart="290.959298194215" route="r1" id="238" type="Car" departSpeed="5" departLane="free"/>
<vehicle depart="292.07032850840557" route="r1" id="239" type="Bus" departSpeed="5" departLane="free"/>
<vehicle depart="294.16330047230815" route="r1" id="240" type="Car" departSpeed="5" departLane="free"/>
<vehicle depart="297.4436881622187" route="r1" id="241" type="Car" departSpeed="5" departLane="free"/>
<vehicle depart="298.0435940550083" route="r1" id="242" type="Car" departSpeed="5" departLane="free"/>
<vehicle depart="298.8034726969031" route="r1" id="243" type="Car" departSpeed="5" departLane="free"/>
<vehicle depart="299.2773696678497" route="r1" id="244" type="Car" departSpeed="5" departLane="free"/>
<vehicle depart="299.4019645510274" route="r1" id="245" type="Bus" departSpeed="5" departLane="free"/>
<vehicle depart="300.3541461892394" route="r1" id="246" type="Bus" departSpeed="5" departLane="free"/>
<vehicle depart="300.9353214118464" route="r1" id="247" type="Car" departSpeed="5" departLane="free"/>
<vehicle depart="301.28469200140745" route="r1" id="248" type="Bus" departSpeed="5" departLane="free"/>
<vehicle depart="302.23478621192476" route="r1" id="249" type="Car" departSpeed="5" departLane="free"/>
<vehicle depart="304.9103303422057" route="r1" id="250" type="Car" departSpeed="5" departLane="free"/>
<vehicle depart="306.50691767299276" route="r1" id="251" type="Car" departSpeed="5" departLane="free"/>
<vehicle depart="306.9480952796142" route="r1" id="252" type="Bus" departSpeed="5" departLane="free"/>
<vehicle depart="307.1931749397035" route="r1" id="253" type="Car" departSpeed="5" departLane="free"/>
<vehicle depart="308.7911027060421" route="r1" id="254" type="Car" departSpeed="5" departLane="free"/>
<vehicle depart="312.08396855161425" route="r1" id="255" type="Car" departSpeed="5" departLane="free"/>
<vehicle depart="312.4011537757008" route="r1" id="256" type="Bus" departSpeed="5" departLane="free"/>
<vehicle depart="313.0733892364479" route="r1" id="257" type="Bus" departSpeed="5" departLane="free"/>
<vehicle depart="314.48295386889305" route="r1" id="258" type="Car" departSpeed="5" departLane="free"/>
<vehicle depart="316.35427940075385" route="r1" id="259" type="Car" departSpeed="5" departLane="free"/>
<vehicle depart="316.45598248570775" route="r1" id="260" type="Car" departSpeed="5" departLane="free"/>
<vehicle depart="318.97648008490506" route="r1" id="261" type="Car" departSpeed="5" departLane="free"/>
<vehicle depart="320.2405569317793" route="r1" id="262" type="Car" departSpeed="5" departLane="free"/>
<vehicle depart="323.32963061199104" route="r1" id="263" type="Car" departSpeed="5" departLane="free"/>
<vehicle depart="323.8013422106728" route="r1" id="264" type="Car" departSpeed="5" departLane="free"/>
<vehicle depart="324.8358704807309" route="r1" id="265" type="Car" departSpeed="5" departLane="free"/>
<vehicle depart="324.98125185148626" route="r1" id="266" type="Car" departSpeed="5" departLane="free"/>
<vehicle depart="325.72032883595983" route="r1" id="267" type="Car" departSpeed="5" departLane="free"/>
<vehicle depart="326.71728810534825" route="r1" id="268" type="Car" departSpeed="5" departLane="free"/>
<vehicle depart="328.9953051582045" route="r1" id="269" type="Bus" departSpeed="5" departLane="free"/>
<vehicle depart="329.10098166850963" route="r1" id="270" type="Car" departSpeed="5" departLane="free"/>
<vehicle depart="331.5480148702121" route="r1" id="271" type="Car" departSpeed="5" departLane="free"/>
<vehicle depart="336.9953592898257" route="r1" id="272" type="Bus" departSpeed="5" departLane="free"/>
<vehicle depart="337.2183874278747" route="r1" id="273" type="Car" departSpeed="5" departLane="free"/>
<vehicle depart="339.5461444185166" route="r1" id="274" type="Car" departSpeed="5" departLane="free"/>
<vehicle depart="339.59098249276883" route="r1" id="275" type="Bus" departSpeed="5" departLane="free"/>
<vehicle depart="342.0787619045729" route="r1" id="276" type="Bus" departSpeed="5" departLane="free"/>
<vehicle depart="342.1519940708916" route="r1" id="277" type="Car" departSpeed="5" departLane="free"/>
<vehicle depart="342.94898480080934" route="r1" id="278" type="Bus" departSpeed="5" departLane="free"/>
<vehicle depart="343.4505450425896" route="r1" id="279" type="Car" departSpeed="5" departLane="free"/>
<vehicle depart="348.3119689843812" route="r1" id="280" type="Car" departSpeed="5" departLane="free"/>
<vehicle depart="351.03675184756645" route="r1" id="281" type="Car" departSpeed="5" departLane="free"/>
<vehicle depart="351.0808050132297" route="r1" id="282" type="Bus" departSpeed="5" departLane="free"/>
<vehicle depart="351.1376860468859" route="r1" id="283" type="Bus" departSpeed="5" departLane="free"/>
<vehicle depart="351.4555755820547" route="r1" id="284" type="Car" departSpeed="5" departLane="free"/>