<?xml version="1.0" encoding="UTF-8"?>

<!-- generated on 2023-11-23 14:39:57 by Eclipse SUMO netconvert Version 1.19.0
<configuration xmlns:xsi="http://www.w3.org/2001/XMLSchema-instance" xsi:noNamespaceSchemaLocation="http://sumo.dlr.de/xsd/netconvertConfiguration.xsd">

    <input>
        <node-files value="AH2174_2023_project1_Section2.nod.xml"/>
        <edge-files value="AH2174_2023_project1_Section2_alternativescenario.edge.xml"/>
        <type-files value="AH2174_2023_project1_Section2.type.xml"/>
    </input>

    <output>
        <output-file value="AH2174_2023_project1_Section2_alternativescenario.net.xml"/>
    </output>

</configuration>
-->

<net version="1.16" junctionCornerDetail="5" limitTurnSpeed="5.50" xmlns:xsi="http://www.w3.org/2001/XMLSchema-instance" xsi:noNamespaceSchemaLocation="http://sumo.dlr.de/xsd/net_file.xsd">

    <location netOffset="0.00,0.00" convBoundary="0.00,0.00,5000.00,0.00" origBoundary="0.00,0.00,5000.00,0.00" projParameter="!"/>

    <type id="highwayType" priority="2" numLanes="3" speed="70.00"/>

    <edge id=":node2_0" function="internal">
        <lane id=":node2_0_0" index="0" speed="70.00" length="0.10" shape="1000.00,-8.00 1000.00,-8.00"/>
        <lane id=":node2_0_1" index="1" speed="70.00" length="0.10" shape="1000.00,-4.80 1000.00,-4.80"/>
        <lane id=":node2_0_2" index="2" speed="70.00" length="0.10" shape="1000.00,-1.60 1000.00,-1.60"/>
    </edge>
    <edge id=":node3_0" function="internal">
        <lane id=":node3_0_0" index="0" speed="70.00" length="0.10" shape="2000.00,-8.00 2000.00,-8.00"/>
        <lane id=":node3_0_1" index="1" speed="70.00" length="0.10" shape="2000.00,-4.80 2000.00,-4.80"/>
        <lane id=":node3_0_2" index="2" speed="70.00" length="0.10" shape="2000.00,-1.60 2000.00,-1.60"/>
    </edge>
    <edge id=":node4_0" function="internal">
        <lane id=":node4_0_0" index="0" speed="70.00" length="0.10" shape="3000.00,-8.00 3000.00,-8.00"/>
        <lane id=":node4_0_1" index="1" speed="70.00" length="0.10" shape="3000.00,-4.80 3000.00,-4.80"/>
        <lane id=":node4_0_2" index="2" speed="70.00" length="0.10" shape="3000.00,-1.60 3000.00,-1.60"/>
    </edge>
    <edge id=":node5_0" function="internal">
        <lane id=":node5_0_0" index="0" speed="70.00" length="0.10" shape="4000.00,-8.00 4000.00,-8.00"/>
        <lane id=":node5_0_1" index="1" speed="70.00" length="0.10" shape="4000.00,-4.80 4000.00,-4.80"/>
        <lane id=":node5_0_2" index="2" speed="70.00" length="0.10" shape="4000.00,-1.60 4000.00,-1.60"/>
    </edge>

    <edge id="edge1" from="node1" to="node2" priority="-1">
        <lane id="edge1_0" index="0" speed="70.00" length="1000.00" shape="0.00,-8.00 1000.00,-8.00"/>
        <lane id="edge1_1" index="1" speed="70.00" length="1000.00" shape="0.00,-4.80 1000.00,-4.80"/>
        <lane id="edge1_2" index="2" speed="70.00" length="1000.00" shape="0.00,-1.60 1000.00,-1.60"/>
    </edge>
    <edge id="edge2" from="node2" to="node3" priority="-1">
        <lane id="edge2_0" index="0" speed="70.00" length="1000.00" shape="1000.00,-8.00 2000.00,-8.00"/>
        <lane id="edge2_1" index="1" speed="70.00" length="1000.00" shape="1000.00,-4.80 2000.00,-4.80"/>
        <lane id="edge2_2" index="2" speed="70.00" length="1000.00" shape="1000.00,-1.60 2000.00,-1.60"/>
    </edge>
    <edge id="edge3" from="node3" to="node4" priority="-1">
        <lane id="edge3_0" index="0" speed="70.00" length="1000.00" shape="2000.00,-8.00 3000.00,-8.00"/>
        <lane id="edge3_1" index="1" speed="70.00" length="1000.00" shape="2000.00,-4.80 3000.00,-4.80"/>
        <lane id="edge3_2" index="2" speed="70.00" length="1000.00" shape="2000.00,-1.60 3000.00,-1.60"/>
    </edge>
    <edge id="edge4" from="node4" to="node5" priority="-1">
        <lane id="edge4_0" index="0" speed="70.00" length="1000.00" shape="3000.00,-8.00 4000.00,-8.00"/>
        <lane id="edge4_1" index="1" speed="70.00" length="1000.00" shape="3000.00,-4.80 4000.00,-4.80"/>
        <lane id="edge4_2" index="2" speed="70.00" length="1000.00" shape="3000.00,-1.60 4000.00,-1.60"/>
    </edge>
    <edge id="edge5" from="node5" to="node6" priority="-1">
        <lane id="edge5_0" index="0" speed="70.00" length="1000.00" shape="4000.00,-8.00 5000.00,-8.00"/>
        <lane id="edge5_1" index="1" speed="70.00" length="1000.00" shape="4000.00,-4.80 5000.00,-4.80"/>
        <lane id="edge5_2" index="2" speed="70.00" length="1000.00" shape="4000.00,-1.60 5000.00,-1.60"/>
    </edge>

    <junction id="node1" type="dead_end" x="0.00" y="0.00" incLanes="" intLanes="" shape="0.00,0.00 0.00,-9.60"/>
    <junction id="node2" type="priority" x="1000.00" y="0.00" incLanes="edge1_0 edge1_1 edge1_2" intLanes=":node2_0_0 :node2_0_1 :node2_0_2" shape="1000.00,0.00 1000.00,-9.60 1000.00,0.00">
        <request index="0" response="000" foes="000" cont="0"/>
        <request index="1" response="000" foes="000" cont="0"/>
        <request index="2" response="000" foes="000" cont="0"/>
    </junction>
    <junction id="node3" type="priority" x="2000.00" y="0.00" incLanes="edge2_0 edge2_1 edge2_2" intLanes=":node3_0_0 :node3_0_1 :node3_0_2" shape="2000.00,0.00 2000.00,-9.60 2000.00,0.00">
        <request index="0" response="000" foes="000" cont="0"/>
        <request index="1" response="000" foes="000" cont="0"/>
        <request index="2" response="000" foes="000" cont="0"/>
    </junction>
    <junction id="node4" type="priority" x="3000.00" y="0.00" incLanes="edge3_0 edge3_1 edge3_2" intLanes=":node4_0_0 :node4_0_1 :node4_0_2" shape="3000.00,0.00 3000.00,-9.60 3000.00,0.00">
        <request index="0" response="000" foes="000" cont="0"/>
        <request index="1" response="000" foes="000" cont="0"/>
        <request index="2" response="000" foes="000" cont="0"/>
    </junction>
    <junction id="node5" type="priority" x="4000.00" y="0.00" incLanes="edge4_0 edge4_1 edge4_2" intLanes=":node5_0_0 :node5_0_1 :node5_0_2" shape="4000.00,0.00 4000.00,-9.60 4000.00,0.00">
        <request index="0" response="000" foes="000" cont="0"/>
        <request index="1" response="000" foes="000" cont="0"/>
        <request index="2" response="000" foes="000" cont="0"/>
    </junction>
    <junction id="node6" type="dead_end" x="5000.00" y="0.00" incLanes="edge5_0 edge5_1 edge5_2" intLanes="" shape="5000.00,-9.60 5000.00,0.00"/>

    <connection from="edge1" to="edge2" fromLane="0" toLane="0" via=":node2_0_0" dir="s" state="M"/>
    <connection from="edge1" to="edge2" fromLane="1" toLane="1" via=":node2_0_1" dir="s" state="M"/>
    <connection from="edge1" to="edge2" fromLane="2" toLane="2" via=":node2_0_2" dir="s" state="M"/>
    <connection from="edge2" to="edge3" fromLane="0" toLane="0" via=":node3_0_0" dir="s" state="M"/>
    <connection from="edge2" to="edge3" fromLane="1" toLane="1" via=":node3_0_1" dir="s" state="M"/>
    <connection from="edge2" to="edge3" fromLane="2" toLane="2" via=":node3_0_2" dir="s" state="M"/>
    <connection from="edge3" to="edge4" fromLane="0" toLane="0" via=":node4_0_0" dir="s" state="M"/>
    <connection from="edge3" to="edge4" fromLane="1" toLane="1" via=":node4_0_1" dir="s" state="M"/>
    <connection from="edge3" to="edge4" fromLane="2" toLane="2" via=":node4_0_2" dir="s" state="M"/>
    <connection from="edge4" to="edge5" fromLane="0" toLane="0" via=":node5_0_0" dir="s" state="M"/>
    <connection from="edge4" to="edge5" fromLane="1" toLane="1" via=":node5_0_1" dir="s" state="M"/>
    <connection from="edge4" to="edge5" fromLane="2" toLane="2" via=":node5_0_2" dir="s" state="M"/>

    <connection from=":node2_0" to="edge2" fromLane="0" toLane="0" dir="s" state="M"/>
    <connection from=":node2_0" to="edge2" fromLane="1" toLane="1" dir="s" state="M"/>
    <connection from=":node2_0" to="edge2" fromLane="2" toLane="2" dir="s" state="M"/>
    <connection from=":node3_0" to="edge3" fromLane="0" toLane="0" dir="s" state="M"/>
    <connection from=":node3_0" to="edge3" fromLane="1" toLane="1" dir="s" state="M"/>
    <connection from=":node3_0" to="edge3" fromLane="2" toLane="2" dir="s" state="M"/>
    <connection from=":node4_0" to="edge4" fromLane="0" toLane="0" dir="s" state="M"/>
    <connection from=":node4_0" to="edge4" fromLane="1" toLane="1" dir="s" state="M"/>
    <connection from=":node4_0" to="edge4" fromLane="2" toLane="2" dir="s" state="M"/>
    <connection from=":node5_0" to="edge5" fromLane="0" toLane="0" dir="s" state="M"/>
    <connection from=":node5_0" to="edge5" fromLane="1" toLane="1" dir="s" state="M"/>
    <connection from=":node5_0" to="edge5" fromLane="2" toLane="2" dir="s" state="M"/>

</net>
