<routes>
<vType accel="2.5" decel="5.0" id="Car" length="5.0" maxSpeed="40" sigma="0.0" carFollowModel="IDM"/>
<vType accel="1.5" decel="4.0" id="Bus" length="18.0" maxSpeed="25" sigma="0.0" carFollowModel="IDM" />
<route id="r1" edges="edge1 edge2 edge3 edge4 edge5"/>
<vehicle depart="0.08700587185622277" route="r1" id="0" type="Car"/>
<vehicle depart="0.5685990649043738" route="r1" id="1" type="Car"/>
<vehicle depart="1.1623693847875822" route="r1" id="2" type="Bus"/>
<vehicle depart="1.1765459615363605" route="r1" id="3" type="Car"/>
<vehicle depart="1.49450257115487" route="r1" id="4" type="Car"/>
<vehicle depart="1.5249529370582635" route="r1" id="5" type="Car"/>
<vehicle depart="1.635160350780056" route="r1" id="6" type="Bus"/>
<vehicle depart="3.904403199506509" route="r1" id="7" type="Car"/>
<vehicle depart="5.761336210332648" route="r1" id="8" type="Car"/>
<vehicle depart="5.975495170616042" route="r1" id="9" type="Car"/>
<vehicle depart="6.396918272689092" route="r1" id="10" type="Car"/>
<vehicle depart="7.082348672785702" route="r1" id="11" type="Car"/>
<vehicle depart="7.697693233153074" route="r1" id="12" type="Car"/>
<vehicle depart="8.224237165247956" route="r1" id="13" type="Car"/>
<vehicle depart="9.043752223458728" route="r1" id="14" type="Car"/>
<vehicle depart="9.612275429472204" route="r1" id="15" type="Car"/>
<vehicle depart="9.743964177868849" route="r1" id="16" type="Car"/>
<vehicle depart="11.26450635974485" route="r1" id="17" type="Bus"/>
<vehicle depart="11.93104201515655" route="r1" id="18" type="Car"/>
<vehicle depart="12.137981779578054" route="r1" id="19" type="Car"/>
<vehicle depart="12.58626221888312" route="r1" id="20" type="Car"/>
<vehicle depart="13.15402366732648" route="r1" id="21" type="Car"/>
<vehicle depart="15.013686179607301" route="r1" id="22" type="Car"/>
<vehicle depart="18.47355362893178" route="r1" id="23" type="Car"/>
<vehicle depart="18.499503210283756" route="r1" id="24" type="Car"/>
<vehicle depart="19.24817387642901" route="r1" id="25" type="Car"/>
<vehicle depart="20.195547073472994" route="r1" id="26" type="Car"/>
<vehicle depart="20.34371532492468" route="r1" id="27" type="Bus"/>
<vehicle depart="22.140717852914374" route="r1" id="28" type="Car"/>
<vehicle depart="23.401401100323852" route="r1" id="29" type="Car"/>
<vehicle depart="23.660326785053154" route="r1" id="30" type="Car"/>
<vehicle depart="24.397460996242764" route="r1" id="31" type="Car"/>
<vehicle depart="25.43713277883108" route="r1" id="32" type="Car"/>
<vehicle depart="25.45345262304627" route="r1" id="33" type="Car"/>
<vehicle depart="27.631501832110587" route="r1" id="34" type="Car"/>
<vehicle depart="28.528603812920593" route="r1" id="35" type="Car"/>
<vehicle depart="29.48240573076104" route="r1" id="36" type="Bus"/>
<vehicle depart="29.812392842893797" route="r1" id="37" type="Car"/>
<vehicle depart="30.104790921961936" route="r1" id="38" type="Car"/>
<vehicle depart="30.507605894121028" route="r1" id="39" type="Bus"/>
<vehicle depart="31.095599697352146" route="r1" id="40" type="Car"/>
<vehicle depart="32.82672713436273" route="r1" id="41" type="Car"/>
<vehicle depart="35.22876861689043" route="r1" id="42" type="Car"/>
<vehicle depart="35.98796273033935" route="r1" id="43" type="Car"/>
<vehicle depart="36.426238828960514" route="r1" id="44" type="Car"/>
<vehicle depart="36.552542182294644" route="r1" id="45" type="Bus"/>
<vehicle depart="39.34284707680827" route="r1" id="46" type="Car"/>
<vehicle depart="40.04855520227483" route="r1" id="47" type="Car"/>
<vehicle depart="40.16368194215149" route="r1" id="48" type="Car"/>
<vehicle depart="42.26886925802162" route="r1" id="49" type="Bus"/>
<vehicle depart="43.37309790711778" route="r1" id="50" type="Car"/>
<vehicle depart="45.56198684860536" route="r1" id="51" type="Car"/>
<vehicle depart="47.16546144485191" route="r1" id="52" type="Bus"/>
<vehicle depart="48.1201745371134" route="r1" id="53" type="Car"/>
<vehicle depart="48.53795875828971" route="r1" id="54" type="Bus"/>
<vehicle depart="51.93856306065462" route="r1" id="55" type="Car"/>
<vehicle depart="52.16860212202391" route="r1" id="56" type="Bus"/>
<vehicle depart="55.46841580957017" route="r1" id="57" type="Car"/>
<vehicle depart="55.48664724938269" route="r1" id="58" type="Car"/>
<vehicle depart="55.79834730286113" route="r1" id="59" type="Car"/>
<vehicle depart="55.86669384847608" route="r1" id="60" type="Car"/>
<vehicle depart="57.50411283065065" route="r1" id="61" type="Bus"/>
<vehicle depart="58.17132173489893" route="r1" id="62" type="Bus"/>
<vehicle depart="62.11941640905463" route="r1" id="63" type="Bus"/>
<vehicle depart="63.77808885594628" route="r1" id="64" type="Car"/>
<vehicle depart="67.0865802446361" route="r1" id="65" type="Bus"/>
<vehicle depart="67.53295189741513" route="r1" id="66" type="Car"/>
<vehicle depart="68.26811129223543" route="r1" id="67" type="Car"/>
<vehicle depart="70.43319167271099" route="r1" id="68" type="Bus"/>
<vehicle depart="70.70853745395925" route="r1" id="69" type="Car"/>
<vehicle depart="70.85961921275825" route="r1" id="70" type="Car"/>
<vehicle depart="73.1290675803878" route="r1" id="71" type="Car"/>
<vehicle depart="73.17809450667106" route="r1" id="72" type="Car"/>
<vehicle depart="74.33224728064063" route="r1" id="73" type="Car"/>
<vehicle depart="75.7904887279585" route="r1" id="74" type="Bus"/>
<vehicle depart="76.13904299830108" route="r1" id="75" type="Car"/>
<vehicle depart="77.49126031372207" route="r1" id="76" type="Bus"/>
<vehicle depart="77.62755734063668" route="r1" id="77" type="Car"/>
<vehicle depart="77.65186268409076" route="r1" id="78" type="Bus"/>
<vehicle depart="78.34419408209722" route="r1" id="79" type="Bus"/>
<vehicle depart="82.5499285230685" route="r1" id="80" type="Bus"/>
<vehicle depart="84.7723268226079" route="r1" id="81" type="Car"/>
<vehicle depart="90.52257908424765" route="r1" id="82" type="Car"/>
<vehicle depart="90.75256670689656" route="r1" id="83" type="Bus"/>
<vehicle depart="91.8730419419927" route="r1" id="84" type="Bus"/>
<vehicle depart="97.01858741093548" route="r1" id="85" type="Car"/>
<vehicle depart="98.26400396507174" route="r1" id="86" type="Bus"/>
<vehicle depart="99.0348412362646" route="r1" id="87" type="Bus"/>
<vehicle depart="99.19511399268728" route="r1" id="88" type="Car"/>
<vehicle depart="101.70556076124392" route="r1" id="89" type="Car"/>
<vehicle depart="103.67498726246771" route="r1" id="90" type="Car"/>
<vehicle depart="104.80317329161338" route="r1" id="91" type="Car"/>
<vehicle depart="106.86550375466608" route="r1" id="92" type="Car"/>
<vehicle depart="108.8317993715886" route="r1" id="93" type="Bus"/>
<vehicle depart="109.10625822642831" route="r1" id="94" type="Car"/>
<vehicle depart="109.79663407758007" route="r1" id="95" type="Car"/>
<vehicle depart="110.44264289005298" route="r1" id="96" type="Bus"/>
<vehicle depart="111.31836284702672" route="r1" id="97" type="Car"/>
<vehicle depart="112.62196265085028" route="r1" id="98" type="Bus"/>
<vehicle depart="115.18444890617506" route="r1" id="99" type="Bus"/>
<vehicle depart="116.93643524387255" route="r1" id="100" type="Car"/>
<vehicle depart="117.17467705116813" route="r1" id="101" type="Car"/>
<vehicle depart="118.03804372562549" route="r1" id="102" type="Car"/>
<vehicle depart="119.1217116160195" route="r1" id="103" type="Car"/>
<vehicle depart="121.56916156022683" route="r1" id="104" type="Car"/>
<vehicle depart="121.60975192122092" route="r1" id="105" type="Bus"/>
<vehicle depart="122.75264390296545" route="r1" id="106" type="Bus"/>
<vehicle depart="124.48446581793668" route="r1" id="107" type="Car"/>
<vehicle depart="128.30185469569824" route="r1" id="108" type="Car"/>
<vehicle depart="128.5634038007514" route="r1" id="109" type="Car"/>
<vehicle depart="132.62727516896948" route="r1" id="110" type="Bus"/>
<vehicle depart="133.64133854079415" route="r1" id="111" type="Bus"/>
<vehicle depart="136.11706645778827" route="r1" id="112" type="Car"/>
<vehicle depart="139.4741921089804" route="r1" id="113" type="Car"/>
<vehicle depart="139.57870668670702" route="r1" id="114" type="Car"/>
<vehicle depart="145.5528789281143" route="r1" id="115" type="Bus"/>
<vehicle depart="146.09361766991898" route="r1" id="116" type="Car"/>
<vehicle depart="146.25008515562763" route="r1" id="117" type="Car"/>
<vehicle depart="146.7492204363122" route="r1" id="118" type="Bus"/>
<vehicle depart="147.34682371872827" route="r1" id="119" type="Car"/>
<vehicle depart="147.7326326156247" route="r1" id="120" type="Car"/>
<vehicle depart="147.85691683783867" route="r1" id="121" type="Car"/>
<vehicle depart="148.00901143882697" route="r1" id="122" type="Bus"/>
<vehicle depart="148.06678912704785" route="r1" id="123" type="Car"/>
<vehicle depart="148.90946308032778" route="r1" id="124" type="Car"/>
<vehicle depart="149.19965557289984" route="r1" id="125" type="Bus"/>
<vehicle depart="149.21144989799572" route="r1" id="126" type="Bus"/>
<vehicle depart="149.74136961611168" route="r1" id="127" type="Car"/>
<vehicle depart="150.89649424595393" route="r1" id="128" type="Car"/>
<vehicle depart="151.007427613787" route="r1" id="129" type="Car"/>
<vehicle depart="151.81363262106217" route="r1" id="130" type="Bus"/>
<vehicle depart="152.43877601751348" route="r1" id="131" type="Car"/>
<vehicle depart="153.86114356701006" route="r1" id="132" type="Car"/>
<vehicle depart="154.7346908740022" route="r1" id="133" type="Car"/>
<vehicle depart="155.21416425094486" route="r1" id="134" type="Car"/>
<vehicle depart="156.96867647472232" route="r1" id="135" type="Car"/>
<vehicle depart="157.14236520113718" route="r1" id="136" type="Car"/>
<vehicle depart="157.9301887049819" route="r1" id="137" type="Bus"/>
<vehicle depart="157.94890393270555" route="r1" id="138" type="Car"/>
<vehicle depart="165.53668401136102" route="r1" id="139" type="Bus"/>
<vehicle depart="167.7192470171173" route="r1" id="140" type="Car"/>
<vehicle depart="167.84603010454308" route="r1" id="141" type="Car"/>
<vehicle depart="169.37307923686487" route="r1" id="142" type="Car"/>
<vehicle depart="169.53696685432317" route="r1" id="143" type="Bus"/>
<vehicle depart="170.17301561192522" route="r1" id="144" type="Car"/>
<vehicle depart="172.03861413739145" route="r1" id="145" type="Car"/>
<vehicle depart="172.6297116597428" route="r1" id="146" type="Bus"/>
<vehicle depart="173.766789952133" route="r1" id="147" type="Car"/>
<vehicle depart="175.65541426088717" route="r1" id="148" type="Bus"/>
<vehicle depart="177.47841292197973" route="r1" id="149" type="Car"/>
<vehicle depart="177.80320333382807" route="r1" id="150" type="Bus"/>
<vehicle depart="179.03799798369698" route="r1" id="151" type="Car"/>
<vehicle depart="179.40080827907664" route="r1" id="152" type="Bus"/>
<vehicle depart="183.38096473539707" route="r1" id="153" type="Car"/>
<vehicle depart="183.3952812545509" route="r1" id="154" type="Car"/>
<vehicle depart="183.87145806276357" route="r1" id="155" type="Bus"/>
<vehicle depart="183.96648586795544" route="r1" id="156" type="Bus"/>
<vehicle depart="184.97212451977944" route="r1" id="157" type="Bus"/>
<vehicle depart="185.01886179164444" route="r1" id="158" type="Car"/>
<vehicle depart="185.28899716840488" route="r1" id="159" type="Car"/>
<vehicle depart="185.71661549561657" route="r1" id="160" type="Bus"/>
<vehicle depart="187.79880548046478" route="r1" id="161" type="Car"/>
<vehicle depart="190.35114561287287" route="r1" id="162" type="Bus"/>
<vehicle depart="192.05939986531007" route="r1" id="163" type="Car"/>
<vehicle depart="192.7301818693035" route="r1" id="164" type="Car"/>
<vehicle depart="193.49358583245956" route="r1" id="165" type="Car"/>
<vehicle depart="194.529527946988" route="r1" id="166" type="Bus"/>
<vehicle depart="194.892351384097" route="r1" id="167" type="Car"/>
<vehicle depart="195.13692311761048" route="r1" id="168" type="Car"/>
<vehicle depart="196.51076785096714" route="r1" id="169" type="Car"/>
<vehicle depart="197.68722591921417" route="r1" id="170" type="Car"/>
<vehicle depart="198.82460700483725" route="r1" id="171" type="Bus"/>
<vehicle depart="199.47452384246557" route="r1" id="172" type="Bus"/>
<vehicle depart="200.28008827246586" route="r1" id="173" type="Bus"/>
<vehicle depart="204.49947521704465" route="r1" id="174" type="Bus"/>
<vehicle depart="206.43851011603894" route="r1" id="175" type="Car"/>
<vehicle depart="207.15161289268" route="r1" id="176" type="Car"/>
<vehicle depart="207.69645872921876" route="r1" id="177" type="Bus"/>
<vehicle depart="208.60151405547182" route="r1" id="178" type="Car"/>
<vehicle depart="208.62807751461924" route="r1" id="179" type="Car"/>
<vehicle depart="209.5993959015565" route="r1" id="180" type="Bus"/>
<vehicle depart="211.72363350020234" route="r1" id="181" type="Bus"/>
<vehicle depart="212.15398518823395" route="r1" id="182" type="Car"/>
<vehicle depart="212.41610412638823" route="r1" id="183" type="Car"/>
<vehicle depart="214.0281740567105" route="r1" id="184" type="Car"/>
<vehicle depart="215.1396344069323" route="r1" id="185" type="Bus"/>
<vehicle depart="216.95624994449238" route="r1" id="186" type="Bus"/>
<vehicle depart="219.9564191592208" route="r1" id="187" type="Car"/>
<vehicle depart="221.6184817579516" route="r1" id="188" type="Car"/>
<vehicle depart="223.44864669975865" route="r1" id="189" type="Car"/>
<vehicle depart="223.87039534074236" route="r1" id="190" type="Car"/>
<vehicle depart="225.88896104219762" route="r1" id="191" type="Bus"/>
<vehicle depart="227.00863769440033" route="r1" id="192" type="Bus"/>
<vehicle depart="231.2577495634584" route="r1" id="193" type="Bus"/>
<vehicle depart="232.5815803049016" route="r1" id="194" type="Car"/>
<vehicle depart="233.67864561606766" route="r1" id="195" type="Car"/>
<vehicle depart="234.08520626092428" route="r1" id="196" type="Bus"/>
<vehicle depart="235.46426895775275" route="r1" id="197" type="Car"/>
<vehicle depart="237.72094253761105" route="r1" id="198" type="Car"/>
<vehicle depart="238.43466907261396" route="r1" id="199" type="Car"/>
<vehicle depart="239.3440625091473" route="r1" id="200" type="Car"/>
<vehicle depart="241.33348561678122" route="r1" id="201" type="Bus"/>
<vehicle depart="241.76409794412012" route="r1" id="202" type="Car"/>
<vehicle depart="242.18385470806157" route="r1" id="203" type="Car"/>
<vehicle depart="243.1199432120629" route="r1" id="204" type="Bus"/>
<vehicle depart="244.5497154314878" route="r1" id="205" type="Car"/>
<vehicle depart="245.70769384129102" route="r1" id="206" type="Bus"/>
<vehicle depart="247.235608143306" route="r1" id="207" type="Car"/>
<vehicle depart="247.8968810662087" route="r1" id="208" type="Bus"/>
<vehicle depart="249.8818884785437" route="r1" id="209" type="Bus"/>
<vehicle depart="251.4490703028428" route="r1" id="210" type="Car"/>
<vehicle depart="253.9244510320921" route="r1" id="211" type="Car"/>
<vehicle depart="254.55750681802516" route="r1" id="212" type="Car"/>
<vehicle depart="256.26527712802545" route="r1" id="213" type="Car"/>
<vehicle depart="256.72069396936746" route="r1" id="214" type="Car"/>
<vehicle depart="256.8496081876835" route="r1" id="215" type="Car"/>
<vehicle depart="258.2961851951119" route="r1" id="216" type="Car"/>
<vehicle depart="259.87096748533685" route="r1" id="217" type="Bus"/>
<vehicle depart="261.94656317939825" route="r1" id="218" type="Bus"/>
<vehicle depart="262.8362458714462" route="r1" id="219" type="Bus"/>
<vehicle depart="264.61622171004126" route="r1" id="220" type="Car"/>
<vehicle depart="267.4182556055744" route="r1" id="221" type="Car"/>
<vehicle depart="268.0710393704553" route="r1" id="222" type="Bus"/>
<vehicle depart="269.37017089225844" route="r1" id="223" type="Car"/>
<vehicle depart="269.5162728459844" route="r1" id="224" type="Car"/>
<vehicle depart="270.4199061697053" route="r1" id="225" type="Car"/>
<vehicle depart="272.5040773339591" route="r1" id="226" type="Car"/>
<vehicle depart="275.276577354358" route="r1" id="227" type="Car"/>
<vehicle depart="275.35268670409164" route="r1" id="228" type="Car"/>
<vehicle depart="275.64002711919323" route="r1" id="229" type="Bus"/>
<vehicle depart="276.309146071875" route="r1" id="230" type="Car"/>
<vehicle depart="277.755468508772" route="r1" id="231" type="Car"/>
<vehicle depart="280.0178939992282" route="r1" id="232" type="Car"/>
<vehicle depart="284.96952674176873" route="r1" id="233" type="Car"/>
<vehicle depart="286.05724842090916" route="r1" id="234" type="Bus"/>
<vehicle depart="286.35337960992143" route="r1" id="235" type="Car"/>
<vehicle depart="287.34342224072714" route="r1" id="236" type="Car"/>
<vehicle depart="289.86940709676713" route="r1" id="237" type="Bus"/>
<vehicle depart="289.92898056687346" route="r1" id="238" type="Car"/>
<vehicle depart="292.69423342900524" route="r1" id="239" type="Car"/>
<vehicle depart="297.27064678442406" route="r1" id="240" type="Car"/>
<vehicle depart="299.73968746792366" route="r1" id="241" type="Bus"/>
<vehicle depart="301.7543103951074" route="r1" id="242" type="Car"/>
<vehicle depart="306.17380712461136" route="r1" id="243" type="Bus"/>
<vehicle depart="306.89160729902346" route="r1" id="244" type="Car"/>
<vehicle depart="306.9154687905734" route="r1" id="245" type="Car"/>
<vehicle depart="307.8863398781506" route="r1" id="246" type="Bus"/>
<vehicle depart="308.83072020385686" route="r1" id="247" type="Car"/>
<vehicle depart="309.34055235297114" route="r1" id="248" type="Car"/>
<vehicle depart="316.86137803318104" route="r1" id="249" type="Car"/>
<vehicle depart="318.22320090585623" route="r1" id="250" type="Car"/>
<vehicle depart="320.78606992699974" route="r1" id="251" type="Car"/>
<vehicle depart="322.8779364697192" route="r1" id="252" type="Bus"/>
<vehicle depart="323.1467625712198" route="r1" id="253" type="Bus"/>
<vehicle depart="323.76852277627614" route="r1" id="254" type="Car"/>
<vehicle depart="326.24452940619875" route="r1" id="255" type="Car"/>
<vehicle depart="326.5555689756653" route="r1" id="256" type="Car"/>
<vehicle depart="328.5092233845996" route="r1" id="257" type="Car"/>
<vehicle depart="328.78473813189913" route="r1" id="258" type="Car"/>
<vehicle depart="329.1656495923115" route="r1" id="259" type="Bus"/>
<vehicle depart="332.1774186340463" route="r1" id="260" type="Bus"/>
<vehicle depart="335.43142931704534" route="r1" id="261" type="Car"/>
<vehicle depart="338.6733765937918" route="r1" id="262" type="Car"/>
<vehicle depart="339.0347355163644" route="r1" id="263" type="Car"/>
<vehicle depart="341.4387910579954" route="r1" id="264" type="Bus"/>
<vehicle depart="342.63316138957515" route="r1" id="265" type="Car"/>
<vehicle depart="343.4891140005208" route="r1" id="266" type="Car"/>
<vehicle depart="344.0105266395744" route="r1" id="267" type="Car"/>
<vehicle depart="346.69575410136855" route="r1" id="268" type="Bus"/>
<vehicle depart="347.13159443723373" route="r1" id="269" type="Car"/>
<vehicle depart="348.93729899186326" route="r1" id="270" type="Car"/>
<vehicle depart="348.96371531768614" route="r1" id="271" type="Car"/>
<vehicle depart="349.5003640056839" route="r1" id="272" type="Car"/>
<vehicle depart="349.6903324076354" route="r1" id="273" type="Bus"/>
<vehicle depart="355.2528115326402" route="r1" id="274" type="Car"/>
<vehicle depart="355.38520456881605" route="r1" id="275" type="Bus"/>
<vehicle depart="355.51153266119354" route="r1" id="276" type="Car"/>
<vehicle depart="355.6739225517853" route="r1" id="277" type="Car"/>
<vehicle depart="355.86618402000795" route="r1" id="278" type="Bus"/>
<vehicle depart="355.88997566523534" route="r1" id="279" type="Car"/>
<vehicle depart="356.84145418860675" route="r1" id="280" type="Bus"/>
<vehicle depart="356.9219725756789" route="r1" id="281" type="Car"/>
<vehicle depart="360.1781045888248" route="r1" id="282" type="Car"/>
<vehicle depart="361.7100619356766" route="r1" id="283" type="Car"/>
<vehicle depart="361.7295780242273" route="r1" id="284" type="Car"/>
<vehicle depart="362.7430317740445" route="r1" id="285" type="Car"/>
<vehicle depart="363.5496834810084" route="r1" id="286" type="Car"/>
<vehicle depart="365.1528869848674" route="r1" id="287" type="Car"/>
<vehicle depart="365.4750513619251" route="r1" id="288" type="Bus"/>
<vehicle depart="365.78837867027977" route="r1" id="289" type="Car"/>
<vehicle depart="367.1244414530527" route="r1" id="290" type="Car"/>
<vehicle depart="367.4394563431535" route="r1" id="291" type="Bus"/>
<vehicle depart="367.86964720598814" route="r1" id="292" type="Car"/>
<vehicle depart="369.02861704506165" route="r1" id="293" type="Bus"/>
<vehicle depart="371.83747767462324" route="r1" id="294" type="Car"/>
<vehicle depart="375.4029552566418" route="r1" id="295" type="Car"/>
<vehicle depart="375.622783368646" route="r1" id="296" type="Bus"/>
<vehicle depart="375.80360513102005" route="r1" id="297" type="Bus"/>
<vehicle depart="377.6365535925378" route="r1" id="298" type="Car"/>
<vehicle depart="378.1782223458932" route="r1" id="299" type="Bus"/>
<vehicle depart="379.66480022222373" route="r1" id="300" type="Car"/>
<vehicle depart="382.22690936734125" route="r1" id="301" type="Car"/>
<vehicle depart="382.44728549763323" route="r1" id="302" type="Car"/>
<vehicle depart="383.27368110864535" route="r1" id="303" type="Car"/>
<vehicle depart="383.29895885820986" route="r1" id="304" type="Car"/>
<vehicle depart="385.7099036620305" route="r1" id="305" type="Car"/>
<vehicle depart="386.27643050575125" route="r1" id="306" type="Car"/>
<vehicle depart="387.43307756936815" route="r1" id="307" type="Car"/>
<vehicle depart="388.271190240197" route="r1" id="308" type="Car"/>
<vehicle depart="388.8060553524951" route="r1" id="309" type="Car"/>
<vehicle depart="389.24804330090785" route="r1" id="310" type="Car"/>
<vehicle depart="390.66690504042697" route="r1" id="311" type="Bus"/>
<vehicle depart="391.03418439139887" route="r1" id="312" type="Car"/>
<vehicle depart="393.3384065067791" route="r1" id="313" type="Bus"/>
<vehicle depart="393.60332230294193" route="r1" id="314" type="Car"/>
<vehicle depart="394.0589696190232" route="r1" id="315" type="Car"/>
<vehicle depart="394.14946370491754" route="r1" id="316" type="Car"/>
<vehicle depart="394.77257671226243" route="r1" id="317" type="Car"/>
<vehicle depart="395.1873283751069" route="r1" id="318" type="Bus"/>
<vehicle depart="398.5949036928322" route="r1" id="319" type="Bus"/>
<vehicle depart="399.0717676731777" route="r1" id="320" type="Bus"/>
<vehicle depart="400.50892727965373" route="r1" id="321" type="Car"/>
<vehicle depart="400.97406837258103" route="r1" id="322" type="Car"/>
<vehicle depart="401.38001416812733" route="r1" id="323" type="Bus"/>
<vehicle depart="402.0297987877242" route="r1" id="324" type="Bus"/>
<vehicle depart="402.35761287896156" route="r1" id="325" type="Car"/>
<vehicle depart="403.990302874374" route="r1" id="326" type="Car"/>
<vehicle depart="404.9619302383405" route="r1" id="327" type="Bus"/>
<vehicle depart="407.17930605875813" route="r1" id="328" type="Car"/>
<vehicle depart="408.4983556552067" route="r1" id="329" type="Car"/>
<vehicle depart="409.0258681416744" route="r1" id="330" type="Car"/>
<vehicle depart="410.70907072279994" route="r1" id="331" type="Car"/>
<vehicle depart="411.78808738104476" route="r1" id="332" type="Car"/>
<vehicle depart="414.2682601296407" route="r1" id="333" type="Car"/>
<vehicle depart="414.96938371563397" route="r1" id="334" type="Car"/>
<vehicle depart="416.0744390488607" route="r1" id="335" type="Bus"/>
<vehicle depart="416.2221397271868" route="r1" id="336" type="Car"/>
<vehicle depart="416.49424511790494" route="r1" id="337" type="Bus"/>
<vehicle depart="417.6334540170173" route="r1" id="338" type="Bus"/>
<vehicle depart="417.87313592654874" route="r1" id="339" type="Car"/>
<vehicle depart="419.5325239637532" route="r1" id="340" type="Bus"/>
<vehicle depart="421.9949936993599" route="r1" id="341" type="Car"/>
<vehicle depart="423.5906533208158" route="r1" id="342" type="Bus"/>
<vehicle depart="424.1366590998113" route="r1" id="343" type="Car"/>
<vehicle depart="426.3617271837756" route="r1" id="344" type="Car"/>
<vehicle depart="427.87434937062767" route="r1" id="345" type="Car"/>
<vehicle depart="431.5591757726258" route="r1" id="346" type="Car"/>
<vehicle depart="431.75590654181264" route="r1" id="347" type="Bus"/>
<vehicle depart="432.4660060630637" route="r1" id="348" type="Car"/>
<vehicle depart="433.6798322907392" route="r1" id="349" type="Car"/>
<vehicle depart="435.52931892568193" route="r1" id="350" type="Car"/>
<vehicle depart="439.42031917184374" route="r1" id="351" type="Car"/>
<vehicle depart="443.9594308045011" route="r1" id="352" type="Car"/>
<vehicle depart="445.53660004752203" route="r1" id="353" type="Car"/>
<vehicle depart="446.0728038668608" route="r1" id="354" type="Bus"/>
<vehicle depart="448.38665307725626" route="r1" id="355" type="Car"/>
<vehicle depart="448.7001470807398" route="r1" id="356" type="Car"/>
<vehicle depart="448.7053519213642" route="r1" id="357" type="Car"/>
<vehicle depart="449.1795776281488" route="r1" id="358" type="Car"/>
<vehicle depart="449.43211914011147" route="r1" id="359" type="Car"/>
<vehicle depart="451.7615676408616" route="r1" id="360" type="Car"/>
<vehicle depart="451.78523554215934" route="r1" id="361" type="Bus"/>
<vehicle depart="452.74341552992036" route="r1" id="362" type="Car"/>
<vehicle depart="452.97550467128985" route="r1" id="363" type="Car"/>
<vehicle depart="453.635264380318" route="r1" id="364" type="Bus"/>
<vehicle depart="456.36438429852933" route="r1" id="365" type="Car"/>
<vehicle depart="458.45261684786345" route="r1" id="366" type="Car"/>
<vehicle depart="458.46367499650836" route="r1" id="367" type="Bus"/>
<vehicle depart="458.58794470251155" route="r1" id="368" type="Car"/>
<vehicle depart="459.962228218614" route="r1" id="369" type="Car"/>
<vehicle depart="461.31137547080726" route="r1" id="370" type="Car"/>
<vehicle depart="461.63926263897855" route="r1" id="371" type="Bus"/>
<vehicle depart="462.14835813584153" route="r1" id="372" type="Car"/>
<vehicle depart="464.69884871877963" route="r1" id="373" type="Bus"/>
<vehicle depart="465.14547029493264" route="r1" id="374" type="Bus"/>
<vehicle depart="465.443068551837" route="r1" id="375" type="Car"/>
<vehicle depart="468.138969614634" route="r1" id="376" type="Car"/>
<vehicle depart="469.3375867292443" route="r1" id="377" type="Car"/>
<vehicle depart="469.91995542223066" route="r1" id="378" type="Car"/>
<vehicle depart="470.1250226592023" route="r1" id="379" type="Bus"/>
<vehicle depart="472.3343041082163" route="r1" id="380" type="Car"/>
<vehicle depart="473.7792504129127" route="r1" id="381" type="Car"/>
<vehicle depart="473.93561990986444" route="r1" id="382" type="Car"/>
<vehicle depart="475.33133320651876" route="r1" id="383" type="Bus"/>
<vehicle depart="476.516270828555" route="r1" id="384" type="Car"/>
<vehicle depart="478.1970433166514" route="r1" id="385" type="Bus"/>
<vehicle depart="478.2658638953038" route="r1" id="386" type="Car"/>
<vehicle depart="479.80761638724493" route="r1" id="387" type="Car"/>
<vehicle depart="481.3190363672298" route="r1" id="388" type="Car"/>
<vehicle depart="482.2129005944774" route="r1" id="389" type="Bus"/>
<vehicle depart="483.4971585046413" route="r1" id="390" type="Car"/>
<vehicle depart="483.7999607837511" route="r1" id="391" type="Car"/>
<vehicle depart="484.3341710140862" route="r1" id="392" type="Car"/>
<vehicle depart="485.00516000313047" route="r1" id="393" type="Car"/>
<vehicle depart="485.5415695496138" route="r1" id="394" type="Car"/>
<vehicle depart="487.5868747984791" route="r1" id="395" type="Bus"/>
<vehicle depart="487.7604907032105" route="r1" id="396" type="Car"/>
<vehicle depart="489.56900515976696" route="r1" id="397" type="Bus"/>
<vehicle depart="490.14469165627196" route="r1" id="398" type="Car"/>
<vehicle depart="490.95793206042526" route="r1" id="399" type="Bus"/>
<vehicle depart="493.2570847320664" route="r1" id="400" type="Car"/>
<vehicle depart="495.3277451152092" route="r1" id="401" type="Car"/>
<vehicle depart="497.4721938141856" route="r1" id="402" type="Bus"/>
<vehicle depart="497.590684877287" route="r1" id="403" type="Car"/>
<vehicle depart="499.0278344086076" route="r1" id="404" type="Bus"/>
<vehicle depart="499.302625826624" route="r1" id="405" type="Bus"/>
<vehicle depart="499.47753173882023" route="r1" id="406" type="Car"/>
<vehicle depart="501.2999017091595" route="r1" id="407" type="Car"/>
<vehicle depart="502.9139055695343" route="r1" id="408" type="Car"/>
<vehicle depart="503.684154875185" route="r1" id="409" type="Car"/>
<vehicle depart="505.69496429232385" route="r1" id="410" type="Car"/>
<vehicle depart="505.78461977160885" route="r1" id="411" type="Car"/>
<vehicle depart="506.2382540874107" route="r1" id="412" type="Car"/>
<vehicle depart="506.77607298578727" route="r1" id="413" type="Bus"/>
<vehicle depart="506.9447922289648" route="r1" id="414" type="Car"/>
<vehicle depart="509.8235697210767" route="r1" id="415" type="Car"/>
<vehicle depart="509.9413805427093" route="r1" id="416" type="Bus"/>
<vehicle depart="510.5835047055503" route="r1" id="417" type="Car"/>
<vehicle depart="511.3194014897302" route="r1" id="418" type="Bus"/>
<vehicle depart="511.375390616508" route="r1" id="419" type="Bus"/>
<vehicle depart="513.260552662102" route="r1" id="420" type="Bus"/>
<vehicle depart="513.9443882294742" route="r1" id="421" type="Bus"/>
<vehicle depart="515.912567574693" route="r1" id="422" type="Car"/>