<routes>
<vType accel="2.5" decel="5.0" id="Car" length="5.0" maxSpeed="40" sigma="0.0"/>
<vType accel="1.5" decel="4.0" id="Bus" length="18.0" maxSpeed="25" sigma="0.0"/>
<route id="r1" edges="edge1 edge2 edge3 edge4 edge5"/>
<vehicle depart="0.8520142635971691" route="r1" id="0" type="Car"/>
<vehicle depart="0.8870427766361176" route="r1" id="1" type="Car"/>
<vehicle depart="2.087387937376589" route="r1" id="2" type="Car"/>
<vehicle depart="2.964880677655158" route="r1" id="3" type="Car"/>
<vehicle depart="3.246433897959214" route="r1" id="4" type="Bus"/>
<vehicle depart="3.818942480212062" route="r1" id="5" type="Car"/>
<vehicle depart="4.178094375633888" route="r1" id="6" type="Car"/>
<vehicle depart="5.213603056262185" route="r1" id="7" type="Car"/>
<vehicle depart="5.488663816506239" route="r1" id="8" type="Car"/>
<vehicle depart="6.128971728576965" route="r1" id="9" type="Bus"/>
<vehicle depart="6.1410138557019796" route="r1" id="10" type="Car"/>
<vehicle depart="6.484394776024396" route="r1" id="11" type="Car"/>
<vehicle depart="6.9155385669382605" route="r1" id="12" type="Car"/>
<vehicle depart="9.754057069627239" route="r1" id="13" type="Bus"/>
<vehicle depart="10.847783356547858" route="r1" id="14" type="Bus"/>
<vehicle depart="10.945624151524777" route="r1" id="15" type="Car"/>
<vehicle depart="11.290552755773174" route="r1" id="16" type="Car"/>
<vehicle depart="11.571573071813301" route="r1" id="17" type="Car"/>
<vehicle depart="13.521065428825786" route="r1" id="18" type="Car"/>
<vehicle depart="14.156752251445003" route="r1" id="19" type="Bus"/>
<vehicle depart="14.326027621930015" route="r1" id="20" type="Car"/>
<vehicle depart="15.45644072806894" route="r1" id="21" type="Bus"/>
<vehicle depart="17.198972449650505" route="r1" id="22" type="Bus"/>
<vehicle depart="18.242287967796152" route="r1" id="23" type="Car"/>
<vehicle depart="18.672065006024717" route="r1" id="24" type="Car"/>
<vehicle depart="20.19764672971932" route="r1" id="25" type="Car"/>
<vehicle depart="20.78242064314381" route="r1" id="26" type="Car"/>
<vehicle depart="25.30716309136271" route="r1" id="27" type="Car"/>
<vehicle depart="25.32604165038643" route="r1" id="28" type="Bus"/>
<vehicle depart="25.742566647362025" route="r1" id="29" type="Car"/>
<vehicle depart="26.173712392014146" route="r1" id="30" type="Bus"/>
<vehicle depart="26.76594398509166" route="r1" id="31" type="Car"/>
<vehicle depart="26.985892509063795" route="r1" id="32" type="Car"/>
<vehicle depart="27.990704178362734" route="r1" id="33" type="Car"/>
<vehicle depart="28.19950212577251" route="r1" id="34" type="Car"/>
<vehicle depart="32.90209425121813" route="r1" id="35" type="Car"/>
<vehicle depart="33.83643528257322" route="r1" id="36" type="Car"/>
<vehicle depart="34.041139586845226" route="r1" id="37" type="Car"/>
<vehicle depart="37.25221122571478" route="r1" id="38" type="Bus"/>
<vehicle depart="38.168195769443884" route="r1" id="39" type="Car"/>
<vehicle depart="41.14637824758508" route="r1" id="40" type="Bus"/>
<vehicle depart="42.08767350269707" route="r1" id="41" type="Bus"/>
<vehicle depart="42.96592879600062" route="r1" id="42" type="Bus"/>
<vehicle depart="45.53288660940716" route="r1" id="43" type="Car"/>
<vehicle depart="45.63406071852191" route="r1" id="44" type="Car"/>
<vehicle depart="46.29622130090327" route="r1" id="45" type="Car"/>
<vehicle depart="46.88441573627468" route="r1" id="46" type="Bus"/>
<vehicle depart="46.9663035897867" route="r1" id="47" type="Bus"/>
<vehicle depart="47.21204889376265" route="r1" id="48" type="Car"/>
<vehicle depart="47.98748381931121" route="r1" id="49" type="Car"/>
<vehicle depart="50.16739759869933" route="r1" id="50" type="Car"/>
<vehicle depart="50.170982714807856" route="r1" id="51" type="Bus"/>
<vehicle depart="60.22720916221466" route="r1" id="52" type="Car"/>
<vehicle depart="60.610925326414936" route="r1" id="53" type="Car"/>
<vehicle depart="65.1828510924721" route="r1" id="54" type="Car"/>
<vehicle depart="67.3579086235384" route="r1" id="55" type="Car"/>
<vehicle depart="68.23898158495443" route="r1" id="56" type="Car"/>
<vehicle depart="70.09024453829767" route="r1" id="57" type="Car"/>
<vehicle depart="72.04053570052783" route="r1" id="58" type="Car"/>
<vehicle depart="72.19499148035261" route="r1" id="59" type="Car"/>
<vehicle depart="72.42028657180613" route="r1" id="60" type="Bus"/>
<vehicle depart="72.85779445482267" route="r1" id="61" type="Car"/>
<vehicle depart="74.78730279243358" route="r1" id="62" type="Bus"/>
<vehicle depart="75.32492551151856" route="r1" id="63" type="Bus"/>
<vehicle depart="75.46753052560099" route="r1" id="64" type="Car"/>
<vehicle depart="78.382939702094" route="r1" id="65" type="Car"/>
<vehicle depart="78.52825722718804" route="r1" id="66" type="Car"/>
<vehicle depart="78.81151660028617" route="r1" id="67" type="Car"/>
<vehicle depart="78.99111230155842" route="r1" id="68" type="Bus"/>
<vehicle depart="81.7476371471278" route="r1" id="69" type="Car"/>
<vehicle depart="83.49203041933524" route="r1" id="70" type="Car"/>
<vehicle depart="83.78247539861852" route="r1" id="71" type="Car"/>
<vehicle depart="85.4142815614161" route="r1" id="72" type="Car"/>
<vehicle depart="85.9477345475932" route="r1" id="73" type="Car"/>
<vehicle depart="85.96122817876488" route="r1" id="74" type="Car"/>
<vehicle depart="87.55614919804808" route="r1" id="75" type="Car"/>
<vehicle depart="89.64658338036106" route="r1" id="76" type="Car"/>
<vehicle depart="90.0671041592731" route="r1" id="77" type="Car"/>
<vehicle depart="93.39541192184517" route="r1" id="78" type="Car"/>
<vehicle depart="93.43341807729578" route="r1" id="79" type="Car"/>
<vehicle depart="94.16910470572527" route="r1" id="80" type="Car"/>
<vehicle depart="94.51871910603673" route="r1" id="81" type="Car"/>
<vehicle depart="95.66647888188324" route="r1" id="82" type="Bus"/>
<vehicle depart="95.76853755297819" route="r1" id="83" type="Bus"/>
<vehicle depart="97.51380072260223" route="r1" id="84" type="Bus"/>
<vehicle depart="97.75213030837698" route="r1" id="85" type="Car"/>
<vehicle depart="97.96125765432402" route="r1" id="86" type="Bus"/>
<vehicle depart="100.58576075970035" route="r1" id="87" type="Car"/>
<vehicle depart="102.37978721036671" route="r1" id="88" type="Car"/>
<vehicle depart="103.26846823898319" route="r1" id="89" type="Bus"/>
<vehicle depart="104.3112224818038" route="r1" id="90" type="Car"/>
<vehicle depart="105.17097970741122" route="r1" id="91" type="Bus"/>
<vehicle depart="108.234990158345" route="r1" id="92" type="Car"/>
<vehicle depart="110.56496193917394" route="r1" id="93" type="Car"/>
<vehicle depart="114.12288966999598" route="r1" id="94" type="Car"/>
<vehicle depart="116.27737638755208" route="r1" id="95" type="Car"/>
<vehicle depart="117.45713465853659" route="r1" id="96" type="Car"/>
<vehicle depart="119.61478677834862" route="r1" id="97" type="Car"/>
<vehicle depart="120.5376753137267" route="r1" id="98" type="Car"/>
<vehicle depart="123.13223037051041" route="r1" id="99" type="Car"/>
<vehicle depart="123.47339463480847" route="r1" id="100" type="Bus"/>
<vehicle depart="124.84815670758293" route="r1" id="101" type="Bus"/>
<vehicle depart="125.09480780931376" route="r1" id="102" type="Bus"/>
<vehicle depart="125.54954348544071" route="r1" id="103" type="Bus"/>
<vehicle depart="126.59348628844619" route="r1" id="104" type="Bus"/>
<vehicle depart="126.88399197155584" route="r1" id="105" type="Bus"/>
<vehicle depart="128.05541749409844" route="r1" id="106" type="Bus"/>
<vehicle depart="128.0961632420387" route="r1" id="107" type="Bus"/>
<vehicle depart="130.14828770397347" route="r1" id="108" type="Car"/>
<vehicle depart="130.9102664363256" route="r1" id="109" type="Car"/>
<vehicle depart="132.61208491321452" route="r1" id="110" type="Car"/>
<vehicle depart="134.4816772683059" route="r1" id="111" type="Car"/>
<vehicle depart="135.64594168512122" route="r1" id="112" type="Car"/>
<vehicle depart="135.88738909914977" route="r1" id="113" type="Car"/>
<vehicle depart="135.96809652306075" route="r1" id="114" type="Car"/>
<vehicle depart="137.12693632243307" route="r1" id="115" type="Car"/>
<vehicle depart="138.07849540244843" route="r1" id="116" type="Bus"/>
<vehicle depart="138.36629373753703" route="r1" id="117" type="Bus"/>
<vehicle depart="139.2184404166577" route="r1" id="118" type="Bus"/>
<vehicle depart="139.9213632353447" route="r1" id="119" type="Car"/>
<vehicle depart="140.6474811758626" route="r1" id="120" type="Car"/>
<vehicle depart="144.477814603125" route="r1" id="121" type="Car"/>
<vehicle depart="146.39520673515116" route="r1" id="122" type="Car"/>
<vehicle depart="146.82039968925562" route="r1" id="123" type="Bus"/>
<vehicle depart="148.59479717094655" route="r1" id="124" type="Bus"/>
<vehicle depart="149.13992254928664" route="r1" id="125" type="Bus"/>
<vehicle depart="149.29110221873785" route="r1" id="126" type="Car"/>
<vehicle depart="149.7644798344122" route="r1" id="127" type="Car"/>
<vehicle depart="150.06840404792845" route="r1" id="128" type="Car"/>
<vehicle depart="150.18918920289076" route="r1" id="129" type="Car"/>
<vehicle depart="153.24612771931555" route="r1" id="130" type="Car"/>
<vehicle depart="154.57162378617144" route="r1" id="131" type="Car"/>
<vehicle depart="155.19926738848736" route="r1" id="132" type="Bus"/>
<vehicle depart="156.14736178585494" route="r1" id="133" type="Bus"/>
<vehicle depart="159.18630699292257" route="r1" id="134" type="Car"/>
<vehicle depart="159.61007858276258" route="r1" id="135" type="Car"/>
<vehicle depart="159.91459579247052" route="r1" id="136" type="Car"/>
<vehicle depart="160.07210613970813" route="r1" id="137" type="Car"/>
<vehicle depart="160.9994196619176" route="r1" id="138" type="Car"/>
<vehicle depart="165.3811520469516" route="r1" id="139" type="Car"/>
<vehicle depart="167.76630540688274" route="r1" id="140" type="Car"/>
<vehicle depart="168.26071507329883" route="r1" id="141" type="Bus"/>
<vehicle depart="169.55026092517704" route="r1" id="142" type="Car"/>
<vehicle depart="170.5300138700047" route="r1" id="143" type="Bus"/>
<vehicle depart="170.64792252381892" route="r1" id="144" type="Car"/>
<vehicle depart="173.27480481806086" route="r1" id="145" type="Bus"/>
<vehicle depart="174.44821549371375" route="r1" id="146" type="Car"/>
<vehicle depart="174.6479924545766" route="r1" id="147" type="Car"/>
<vehicle depart="175.4413869461262" route="r1" id="148" type="Bus"/>
<vehicle depart="177.71436443101075" route="r1" id="149" type="Car"/>
<vehicle depart="178.1806964630637" route="r1" id="150" type="Bus"/>
<vehicle depart="178.79651699165728" route="r1" id="151" type="Car"/>
<vehicle depart="179.30273378851408" route="r1" id="152" type="Car"/>
<vehicle depart="179.3651854390531" route="r1" id="153" type="Car"/>
<vehicle depart="180.8883645579029" route="r1" id="154" type="Car"/>
<vehicle depart="182.88002578635175" route="r1" id="155" type="Car"/>
<vehicle depart="182.92580398532266" route="r1" id="156" type="Car"/>
<vehicle depart="185.8904482623047" route="r1" id="157" type="Car"/>
<vehicle depart="186.27248247988933" route="r1" id="158" type="Car"/>
<vehicle depart="186.2980578596174" route="r1" id="159" type="Car"/>
<vehicle depart="187.85506524300527" route="r1" id="160" type="Car"/>
<vehicle depart="188.93491623575437" route="r1" id="161" type="Car"/>
<vehicle depart="189.40311572494304" route="r1" id="162" type="Car"/>
<vehicle depart="189.9579380547418" route="r1" id="163" type="Car"/>
<vehicle depart="192.04551278624996" route="r1" id="164" type="Car"/>
<vehicle depart="193.4980678250869" route="r1" id="165" type="Car"/>
<vehicle depart="193.5422897733191" route="r1" id="166" type="Car"/>
<vehicle depart="194.73069684864086" route="r1" id="167" type="Bus"/>
<vehicle depart="195.64083675342798" route="r1" id="168" type="Car"/>
<vehicle depart="196.36145643493208" route="r1" id="169" type="Bus"/>
<vehicle depart="196.94270658861026" route="r1" id="170" type="Bus"/>
<vehicle depart="197.31342186181152" route="r1" id="171" type="Car"/>
<vehicle depart="197.88045023724277" route="r1" id="172" type="Car"/>
<vehicle depart="199.76626184795452" route="r1" id="173" type="Bus"/>
<vehicle depart="201.87688347296134" route="r1" id="174" type="Car"/>
<vehicle depart="204.02710432446062" route="r1" id="175" type="Car"/>
<vehicle depart="204.94886028844923" route="r1" id="176" type="Bus"/>
<vehicle depart="206.5939891737911" route="r1" id="177" type="Car"/>
<vehicle depart="206.81727905534365" route="r1" id="178" type="Car"/>
<vehicle depart="206.9641065696656" route="r1" id="179" type="Car"/>
<vehicle depart="208.26358322458583" route="r1" id="180" type="Bus"/>
<vehicle depart="209.5880166899846" route="r1" id="181" type="Bus"/>
<vehicle depart="212.09119257453162" route="r1" id="182" type="Bus"/>
<vehicle depart="214.7161893427196" route="r1" id="183" type="Car"/>
<vehicle depart="215.18115085075135" route="r1" id="184" type="Car"/>
<vehicle depart="215.25261401617902" route="r1" id="185" type="Car"/>
<vehicle depart="216.76203952889568" route="r1" id="186" type="Car"/>
<vehicle depart="217.41448212276904" route="r1" id="187" type="Bus"/>
<vehicle depart="217.47685820702597" route="r1" id="188" type="Car"/>
<vehicle depart="219.90450947078196" route="r1" id="189" type="Car"/>
<vehicle depart="220.71541155740647" route="r1" id="190" type="Car"/>
<vehicle depart="223.62895528035523" route="r1" id="191" type="Bus"/>
<vehicle depart="225.75118593490828" route="r1" id="192" type="Car"/>
<vehicle depart="226.12317789306414" route="r1" id="193" type="Car"/>
<vehicle depart="228.85106575906562" route="r1" id="194" type="Bus"/>
<vehicle depart="229.40924317379645" route="r1" id="195" type="Car"/>
<vehicle depart="230.742661576998" route="r1" id="196" type="Car"/>
<vehicle depart="231.86863641076863" route="r1" id="197" type="Car"/>
<vehicle depart="232.85143388264103" route="r1" id="198" type="Car"/>
<vehicle depart="233.50993509998997" route="r1" id="199" type="Car"/>
<vehicle depart="234.17514747748905" route="r1" id="200" type="Bus"/>
<vehicle depart="235.52563522305985" route="r1" id="201" type="Car"/>
<vehicle depart="235.83360336001937" route="r1" id="202" type="Bus"/>
<vehicle depart="236.22619344781424" route="r1" id="203" type="Bus"/>
<vehicle depart="237.65305570246446" route="r1" id="204" type="Car"/>
<vehicle depart="239.00725787104815" route="r1" id="205" type="Car"/>
<vehicle depart="241.1698857732117" route="r1" id="206" type="Car"/>
<vehicle depart="242.09248548889258" route="r1" id="207" type="Car"/>
<vehicle depart="242.65409640696507" route="r1" id="208" type="Car"/>
<vehicle depart="243.674763013762" route="r1" id="209" type="Bus"/>
<vehicle depart="244.04480256071673" route="r1" id="210" type="Car"/>
<vehicle depart="246.0700614199063" route="r1" id="211" type="Car"/>
<vehicle depart="247.55751687397833" route="r1" id="212" type="Bus"/>
<vehicle depart="248.50888438825007" route="r1" id="213" type="Car"/>
<vehicle depart="248.62499512955853" route="r1" id="214" type="Car"/>
<vehicle depart="249.17072926109512" route="r1" id="215" type="Car"/>
<vehicle depart="250.189944392537" route="r1" id="216" type="Car"/>
<vehicle depart="250.41136194563077" route="r1" id="217" type="Car"/>
<vehicle depart="250.4540217879594" route="r1" id="218" type="Car"/>
<vehicle depart="251.27052152339058" route="r1" id="219" type="Bus"/>
<vehicle depart="251.33001607736892" route="r1" id="220" type="Car"/>
<vehicle depart="251.5437460321558" route="r1" id="221" type="Car"/>
<vehicle depart="254.13691408570713" route="r1" id="222" type="Car"/>
<vehicle depart="255.10149494574642" route="r1" id="223" type="Car"/>
<vehicle depart="255.8164018029031" route="r1" id="224" type="Bus"/>
<vehicle depart="256.7629246412189" route="r1" id="225" type="Car"/>
<vehicle depart="256.86947794577173" route="r1" id="226" type="Car"/>
<vehicle depart="257.135940971833" route="r1" id="227" type="Car"/>
<vehicle depart="265.3830485496835" route="r1" id="228" type="Bus"/>
<vehicle depart="265.46682151671837" route="r1" id="229" type="Car"/>
<vehicle depart="266.769793955576" route="r1" id="230" type="Car"/>
<vehicle depart="266.7859150459035" route="r1" id="231" type="Car"/>
<vehicle depart="267.0662778092226" route="r1" id="232" type="Bus"/>
<vehicle depart="267.98835485541633" route="r1" id="233" type="Car"/>
<vehicle depart="268.002760820885" route="r1" id="234" type="Car"/>
<vehicle depart="268.8030817464764" route="r1" id="235" type="Car"/>
<vehicle depart="269.3369346809566" route="r1" id="236" type="Bus"/>
<vehicle depart="269.47912832870395" route="r1" id="237" type="Car"/>
<vehicle depart="272.53809010106283" route="r1" id="238" type="Bus"/>
<vehicle depart="272.9133454860088" route="r1" id="239" type="Car"/>
<vehicle depart="273.49685688761593" route="r1" id="240" type="Car"/>
<vehicle depart="276.63143023991483" route="r1" id="241" type="Bus"/>
<vehicle depart="280.55638168522376" route="r1" id="242" type="Car"/>
<vehicle depart="284.10383996685033" route="r1" id="243" type="Bus"/>
<vehicle depart="284.63103417972394" route="r1" id="244" type="Bus"/>
<vehicle depart="285.9961314160999" route="r1" id="245" type="Car"/>
<vehicle depart="286.5008528736021" route="r1" id="246" type="Car"/>
<vehicle depart="286.60463873246977" route="r1" id="247" type="Car"/>
<vehicle depart="286.881091578384" route="r1" id="248" type="Car"/>
<vehicle depart="289.5224071388519" route="r1" id="249" type="Car"/>
<vehicle depart="292.39514871027376" route="r1" id="250" type="Bus"/>
<vehicle depart="292.6148202813883" route="r1" id="251" type="Bus"/>
<vehicle depart="292.9497312356858" route="r1" id="252" type="Car"/>
<vehicle depart="294.01276178626273" route="r1" id="253" type="Car"/>
<vehicle depart="299.2404129638109" route="r1" id="254" type="Car"/>
<vehicle depart="302.1855292384736" route="r1" id="255" type="Car"/>
<vehicle depart="302.6710545596252" route="r1" id="256" type="Car"/>
<vehicle depart="302.67553733219006" route="r1" id="257" type="Bus"/>
<vehicle depart="304.1262729443116" route="r1" id="258" type="Car"/>
<vehicle depart="306.2370093255691" route="r1" id="259" type="Car"/>
<vehicle depart="307.49252375041436" route="r1" id="260" type="Car"/>
<vehicle depart="308.6955952115358" route="r1" id="261" type="Car"/>
<vehicle depart="309.0631203413867" route="r1" id="262" type="Bus"/>
<vehicle depart="309.2255045679329" route="r1" id="263" type="Car"/>
<vehicle depart="310.1609764103071" route="r1" id="264" type="Car"/>
<vehicle depart="312.3891762849288" route="r1" id="265" type="Car"/>
<vehicle depart="314.3192694894312" route="r1" id="266" type="Car"/>
<vehicle depart="315.24813740221725" route="r1" id="267" type="Bus"/>
<vehicle depart="320.55177471681907" route="r1" id="268" type="Bus"/>
<vehicle depart="321.4144689307817" route="r1" id="269" type="Bus"/>
<vehicle depart="324.56388468840504" route="r1" id="270" type="Car"/>
<vehicle depart="326.25932072614876" route="r1" id="271" type="Car"/>
<vehicle depart="326.83417871968834" route="r1" id="272" type="Car"/>
<vehicle depart="327.12124099750633" route="r1" id="273" type="Bus"/>
<vehicle depart="327.43063511357167" route="r1" id="274" type="Car"/>
<vehicle depart="329.6701220136381" route="r1" id="275" type="Car"/>
<vehicle depart="330.13738763882697" route="r1" id="276" type="Car"/>
<vehicle depart="330.3513429566434" route="r1" id="277" type="Bus"/>
<vehicle depart="330.39295581566375" route="r1" id="278" type="Car"/>
<vehicle depart="333.46613379656884" route="r1" id="279" type="Car"/>
<vehicle depart="333.7095830726673" route="r1" id="280" type="Bus"/>
<vehicle depart="335.2607098931951" route="r1" id="281" type="Bus"/>
<vehicle depart="335.33265795186543" route="r1" id="282" type="Car"/>
<vehicle depart="338.52654571906197" route="r1" id="283" type="Car"/>
<vehicle depart="338.6035242131128" route="r1" id="284" type="Bus"/>
<vehicle depart="340.10266476618136" route="r1" id="285" type="Bus"/>
<vehicle depart="342.5985442240458" route="r1" id="286" type="Bus"/>
<vehicle depart="343.7310172495476" route="r1" id="287" type="Car"/>
<vehicle depart="344.64093112986177" route="r1" id="288" type="Bus"/>
<vehicle depart="345.67748492557723" route="r1" id="289" type="Car"/>
<vehicle depart="345.9557676961879" route="r1" id="290" type="Car"/>
<vehicle depart="348.2255594403364" route="r1" id="291" type="Bus"/>
<vehicle depart="349.53457998340133" route="r1" id="292" type="Car"/>
<vehicle depart="350.5910379991101" route="r1" id="293" type="Car"/>
<vehicle depart="351.1069133343278" route="r1" id="294" type="Car"/>
<vehicle depart="352.32948197058647" route="r1" id="295" type="Car"/>
<vehicle depart="353.0874856881442" route="r1" id="296" type="Car"/>
<vehicle depart="353.3564976784611" route="r1" id="297" type="Bus"/>
<vehicle depart="354.3606204325893" route="r1" id="298" type="Car"/>
<vehicle depart="356.45661154682864" route="r1" id="299" type="Car"/>
<vehicle depart="357.3623711514506" route="r1" id="300" type="Car"/>
<vehicle depart="359.66372453688774" route="r1" id="301" type="Bus"/>
<vehicle depart="360.36544555185446" route="r1" id="302" type="Car"/>
<vehicle depart="363.8332772019027" route="r1" id="303" type="Bus"/>
<vehicle depart="365.42931603444265" route="r1" id="304" type="Car"/>
<vehicle depart="365.7763522660052" route="r1" id="305" type="Bus"/>
<vehicle depart="366.7091439933465" route="r1" id="306" type="Car"/>
<vehicle depart="367.07680884919455" route="r1" id="307" type="Car"/>
<vehicle depart="369.9744566699103" route="r1" id="308" type="Car"/>
<vehicle depart="370.8033392516876" route="r1" id="309" type="Car"/>
<vehicle depart="371.68772330271446" route="r1" id="310" type="Car"/>
<vehicle depart="371.98238213502594" route="r1" id="311" type="Bus"/>
<vehicle depart="373.04697390063154" route="r1" id="312" type="Bus"/>
<vehicle depart="375.0411349430499" route="r1" id="313" type="Car"/>
<vehicle depart="376.8811099265067" route="r1" id="314" type="Bus"/>
<vehicle depart="379.10312776242904" route="r1" id="315" type="Car"/>
<vehicle depart="380.02418494530684" route="r1" id="316" type="Bus"/>
<vehicle depart="381.8102557557662" route="r1" id="317" type="Car"/>
<vehicle depart="382.2036585886348" route="r1" id="318" type="Car"/>
<vehicle depart="382.44838126058926" route="r1" id="319" type="Car"/>
<vehicle depart="382.4821578708721" route="r1" id="320" type="Bus"/>
<vehicle depart="382.54959403528744" route="r1" id="321" type="Car"/>
<vehicle depart="383.51522856594465" route="r1" id="322" type="Bus"/>
<vehicle depart="383.55755596117694" route="r1" id="323" type="Car"/>
<vehicle depart="383.8725641600181" route="r1" id="324" type="Car"/>
<vehicle depart="384.5187711097697" route="r1" id="325" type="Bus"/>
<vehicle depart="385.48634347488195" route="r1" id="326" type="Car"/>
<vehicle depart="386.2593512425511" route="r1" id="327" type="Bus"/>
<vehicle depart="389.51412288849747" route="r1" id="328" type="Car"/>
<vehicle depart="391.9857958097412" route="r1" id="329" type="Bus"/>
<vehicle depart="394.50550623020865" route="r1" id="330" type="Car"/>
<vehicle depart="395.0301243357972" route="r1" id="331" type="Car"/>
<vehicle depart="395.1560111685127" route="r1" id="332" type="Car"/>
<vehicle depart="396.7382943438854" route="r1" id="333" type="Car"/>
<vehicle depart="398.219666320275" route="r1" id="334" type="Car"/>
<vehicle depart="399.11502216975435" route="r1" id="335" type="Bus"/>
<vehicle depart="399.6959598680564" route="r1" id="336" type="Bus"/>
<vehicle depart="402.2493577651843" route="r1" id="337" type="Bus"/>
<vehicle depart="407.7340936019442" route="r1" id="338" type="Bus"/>
<vehicle depart="408.52372558607" route="r1" id="339" type="Bus"/>
<vehicle depart="408.9422227982788" route="r1" id="340" type="Bus"/>
<vehicle depart="410.0872632466738" route="r1" id="341" type="Car"/>
<vehicle depart="410.5123199034631" route="r1" id="342" type="Bus"/>
<vehicle depart="411.00667995412624" route="r1" id="343" type="Bus"/>
<vehicle depart="411.2043441699364" route="r1" id="344" type="Car"/>
<vehicle depart="411.5874491648608" route="r1" id="345" type="Car"/>
<vehicle depart="412.6514929195423" route="r1" id="346" type="Car"/>
<vehicle depart="412.99632340915605" route="r1" id="347" type="Car"/>
<vehicle depart="414.15383756275924" route="r1" id="348" type="Car"/>
<vehicle depart="414.4621382341709" route="r1" id="349" type="Car"/>
<vehicle depart="416.3369672092732" route="r1" id="350" type="Bus"/>
<vehicle depart="416.8281180369896" route="r1" id="351" type="Car"/>
<vehicle depart="416.98315061599556" route="r1" id="352" type="Car"/>
<vehicle depart="419.66534987198304" route="r1" id="353" type="Bus"/>
<vehicle depart="420.4308423800313" route="r1" id="354" type="Car"/>
<vehicle depart="421.62703497684106" route="r1" id="355" type="Car"/>
<vehicle depart="421.9677384887049" route="r1" id="356" type="Car"/>
<vehicle depart="422.74176560599005" route="r1" id="357" type="Bus"/>
<vehicle depart="422.8573935620643" route="r1" id="358" type="Car"/>
<vehicle depart="422.94397155052616" route="r1" id="359" type="Bus"/>
<vehicle depart="423.29539836392945" route="r1" id="360" type="Car"/>
<vehicle depart="423.83011183240785" route="r1" id="361" type="Car"/>
<vehicle depart="423.93994767834795" route="r1" id="362" type="Car"/>
<vehicle depart="424.2164214541675" route="r1" id="363" type="Bus"/>
<vehicle depart="424.71956417528503" route="r1" id="364" type="Car"/>
<vehicle depart="426.02433726704214" route="r1" id="365" type="Car"/>
<vehicle depart="426.72232430842627" route="r1" id="366" type="Bus"/>
<vehicle depart="427.2362578038643" route="r1" id="367" type="Car"/>
<vehicle depart="428.2979293174998" route="r1" id="368" type="Car"/>
<vehicle depart="428.9834769626977" route="r1" id="369" type="Car"/>
<vehicle depart="430.59976232874635" route="r1" id="370" type="Car"/>
<vehicle depart="430.75067352933115" route="r1" id="371" type="Car"/>
<vehicle depart="435.3608525545761" route="r1" id="372" type="Car"/>
<vehicle depart="435.7655245294016" route="r1" id="373" type="Car"/>
<vehicle depart="436.0938978827501" route="r1" id="374" type="Bus"/>
<vehicle depart="436.2444779348695" route="r1" id="375" type="Bus"/>
<vehicle depart="438.0196967108899" route="r1" id="376" type="Car"/>
<vehicle depart="438.29289894558195" route="r1" id="377" type="Car"/>
<vehicle depart="439.2529826036704" route="r1" id="378" type="Car"/>
<vehicle depart="441.775332167001" route="r1" id="379" type="Bus"/>
<vehicle depart="441.8637825522486" route="r1" id="380" type="Car"/>
<vehicle depart="444.84232096042047" route="r1" id="381" type="Car"/>
<vehicle depart="446.41376194122125" route="r1" id="382" type="Car"/>
<vehicle depart="446.6900881751899" route="r1" id="383" type="Car"/>
<vehicle depart="447.1961408191448" route="r1" id="384" type="Car"/>
<vehicle depart="448.1393408952281" route="r1" id="385" type="Bus"/>
<vehicle depart="448.50596765887326" route="r1" id="386" type="Car"/>
<vehicle depart="448.9797735282468" route="r1" id="387" type="Bus"/>
<vehicle depart="457.656865949414" route="r1" id="388" type="Bus"/>
<vehicle depart="457.7294745765666" route="r1" id="389" type="Bus"/>
<vehicle depart="459.14511842096766" route="r1" id="390" type="Bus"/>
<vehicle depart="459.26822915806605" route="r1" id="391" type="Car"/>
<vehicle depart="459.9556126995555" route="r1" id="392" type="Car"/>
<vehicle depart="460.2282363400069" route="r1" id="393" type="Bus"/>
<vehicle depart="460.3256972680351" route="r1" id="394" type="Bus"/>
<vehicle depart="461.1486399656475" route="r1" id="395" type="Bus"/>
<vehicle depart="461.3628161941767" route="r1" id="396" type="Car"/>
<vehicle depart="463.1273313501032" route="r1" id="397" type="Car"/>
<vehicle depart="464.3009068919888" route="r1" id="398" type="Car"/>
<vehicle depart="466.21457713923024" route="r1" id="399" type="Car"/>
<vehicle depart="469.07521890054045" route="r1" id="400" type="Car"/>
<vehicle depart="471.860235038295" route="r1" id="401" type="Bus"/>
<vehicle depart="474.8782302489912" route="r1" id="402" type="Car"/>
<vehicle depart="475.8804604694798" route="r1" id="403" type="Car"/>
<vehicle depart="476.11838484111473" route="r1" id="404" type="Bus"/>
<vehicle depart="477.0123639902561" route="r1" id="405" type="Car"/>
<vehicle depart="478.19911013989446" route="r1" id="406" type="Car"/>
<vehicle depart="479.13347848499654" route="r1" id="407" type="Car"/>
<vehicle depart="481.7544813515024" route="r1" id="408" type="Car"/>
<vehicle depart="482.46765261080014" route="r1" id="409" type="Bus"/>
<vehicle depart="483.44947138180265" route="r1" id="410" type="Car"/>
<vehicle depart="484.75849379436664" route="r1" id="411" type="Car"/>
<vehicle depart="485.26364858169285" route="r1" id="412" type="Car"/>
<vehicle depart="485.78235459479333" route="r1" id="413" type="Bus"/>
<vehicle depart="486.8855543903669" route="r1" id="414" type="Car"/>
<vehicle depart="487.54764476773175" route="r1" id="415" type="Car"/>
<vehicle depart="491.2351219680123" route="r1" id="416" type="Car"/>
<vehicle depart="494.0811289107245" route="r1" id="417" type="Bus"/>
<vehicle depart="497.7756807177428" route="r1" id="418" type="Car"/>
<vehicle depart="498.67306315109187" route="r1" id="419" type="Car"/>
<vehicle depart="498.9853263640045" route="r1" id="420" type="Bus"/>
<vehicle depart="499.26644563535376" route="r1" id="421" type="Car"/>
<vehicle depart="501.02219751983114" route="r1" id="422" type="Bus"/>
<vehicle depart="502.3904509726238" route="r1" id="423" type="Car"/>