<routes>
<vType id="car" accel="1.0" decel="1.5" sigma="0.5" length="5.0" minGap="2" maxSpeed="15" carFollowModel="IDM" delta="4" tau="1"/>
<route id="r1" edges="edge1 edge2 edge3 edge4 edge5"/>
<vehicle depart="0" route="r1" id="vehicle0" type="car" departPos="0" tau="1.3722491330818611"/>
<vehicle depart="0" route="r1" id="vehicle1" type="car" departPos="10" tau="0.9032877477792755"/>
<vehicle depart="0" route="r1" id="vehicle2" type="car" departPos="20" tau="1.1522482311629894"/>
<vehicle depart="0" route="r1" id="vehicle3" type="car" departPos="30" tau="1.290364611753179"/>
<vehicle depart="0" route="r1" id="vehicle4" type="car" departPos="40" tau="0.8598083328749626"/>
<vehicle depart="0" route="r1" id="vehicle5" type="car" departPos="50" tau="1.258599229301896"/>
<vehicle depart="0" route="r1" id="vehicle6" type="car" departPos="60" tau="0.8101973352541337"/>
<vehicle depart="0" route="r1" id="vehicle7" type="car" departPos="70" tau="1.0088475284375558"/>
</routes>