<routes>
<vType id="car" accel="1.0" decel="1.5" sigma="0.5" length="5.0" minGap="2" maxSpeed="33.33" carFollowModel="IDM" delta="4" tau="1"/>
<route id="r1" edges="edge1 edge2 edge3 edge4 edge5"/>
<vehicle depart="0" route="r1" id="vehicle0" type="car" departPos="0" tau="0.9066064813919082"/>
<vehicle depart="0" route="r1" id="vehicle1" type="car" departPos="10" tau="1.1740888864601262"/>
<vehicle depart="0" route="r1" id="vehicle2" type="car" departPos="20" tau="1.3593662227059389"/>
<vehicle depart="0" route="r1" id="vehicle3" type="car" departPos="30" tau="1.1336897555711511"/>
<vehicle depart="0" route="r1" id="vehicle4" type="car" departPos="40" tau="1.1521880843344199"/>
<vehicle depart="0" route="r1" id="vehicle5" type="car" departPos="50" tau="0.9112170115733306"/>
<vehicle depart="0" route="r1" id="vehicle6" type="car" departPos="60" tau="1.1301581406756975"/>
<vehicle depart="0" route="r1" id="vehicle7" type="car" departPos="70" tau="1.2616925577920448"/>
</routes>