<routes>
<vType accel="2.5" decel="5.0" id="Car" length="5.0" maxSpeed="40" sigma="0.0" carFollowModel="IDM"/>
<vType accel="1.5" decel="4.0" id="Bus" length="18.0" maxSpeed="25" sigma="0.0" carFollowModel="IDM" />
<route id="r1" edges="edge1 edge2 edge3 edge4 edge5"/>
<vehicle depart="0.12123277972931018" route="r1" id="0" type="Car"/>
<vehicle depart="1.2792466469449142" route="r1" id="1" type="Car"/>
<vehicle depart="1.2922854255070417" route="r1" id="2" type="Bus"/>
<vehicle depart="2.762896562919673" route="r1" id="3" type="Bus"/>
<vehicle depart="3.177947661606591" route="r1" id="4" type="Bus"/>
<vehicle depart="4.256537364083488" route="r1" id="5" type="Car"/>
<vehicle depart="5.218624881853528" route="r1" id="6" type="Car"/>
<vehicle depart="5.771599087068548" route="r1" id="7" type="Car"/>
<vehicle depart="9.419312180757734" route="r1" id="8" type="Bus"/>
<vehicle depart="10.456473318203374" route="r1" id="9" type="Car"/>
<vehicle depart="12.770844282889879" route="r1" id="10" type="Car"/>
<vehicle depart="15.319544139418227" route="r1" id="11" type="Car"/>
<vehicle depart="16.123783392367223" route="r1" id="12" type="Car"/>
<vehicle depart="16.631064820212377" route="r1" id="13" type="Bus"/>
<vehicle depart="17.294164978349414" route="r1" id="14" type="Car"/>
<vehicle depart="18.503107757119633" route="r1" id="15" type="Bus"/>
<vehicle depart="20.8261798180919" route="r1" id="16" type="Car"/>
<vehicle depart="24.056964628175194" route="r1" id="17" type="Car"/>
<vehicle depart="24.366135197086315" route="r1" id="18" type="Car"/>
<vehicle depart="25.676454169603954" route="r1" id="19" type="Car"/>
<vehicle depart="26.277510430509206" route="r1" id="20" type="Car"/>
<vehicle depart="28.039515484490046" route="r1" id="21" type="Car"/>
<vehicle depart="28.207362224735157" route="r1" id="22" type="Bus"/>
<vehicle depart="28.508084519512256" route="r1" id="23" type="Bus"/>
<vehicle depart="33.49862306632468" route="r1" id="24" type="Car"/>
<vehicle depart="33.768824903603914" route="r1" id="25" type="Car"/>
<vehicle depart="33.98555956397687" route="r1" id="26" type="Bus"/>
<vehicle depart="37.98447648680776" route="r1" id="27" type="Car"/>
<vehicle depart="38.21488481806128" route="r1" id="28" type="Car"/>
<vehicle depart="39.54425008120751" route="r1" id="29" type="Bus"/>
<vehicle depart="39.565117537082614" route="r1" id="30" type="Car"/>
<vehicle depart="40.69554485145027" route="r1" id="31" type="Car"/>
<vehicle depart="40.72750330761496" route="r1" id="32" type="Car"/>
<vehicle depart="41.1887193225449" route="r1" id="33" type="Car"/>
<vehicle depart="41.52476296015126" route="r1" id="34" type="Car"/>
<vehicle depart="42.36042010090301" route="r1" id="35" type="Car"/>
<vehicle depart="42.784078659648806" route="r1" id="36" type="Bus"/>
<vehicle depart="44.54306072123526" route="r1" id="37" type="Car"/>
<vehicle depart="45.91695135955311" route="r1" id="38" type="Car"/>
<vehicle depart="46.55686678609176" route="r1" id="39" type="Car"/>
<vehicle depart="49.31844826176774" route="r1" id="40" type="Car"/>
<vehicle depart="49.55453019371949" route="r1" id="41" type="Car"/>
<vehicle depart="49.646543034134396" route="r1" id="42" type="Bus"/>
<vehicle depart="51.28440386882728" route="r1" id="43" type="Bus"/>
<vehicle depart="53.149414899045034" route="r1" id="44" type="Car"/>
<vehicle depart="54.32308411383095" route="r1" id="45" type="Bus"/>
<vehicle depart="55.71529454119262" route="r1" id="46" type="Car"/>
<vehicle depart="55.820815830024316" route="r1" id="47" type="Car"/>
<vehicle depart="56.12522946714057" route="r1" id="48" type="Bus"/>
<vehicle depart="57.976304712092414" route="r1" id="49" type="Car"/>
<vehicle depart="58.38880073481436" route="r1" id="50" type="Car"/>
<vehicle depart="58.866927810726615" route="r1" id="51" type="Car"/>
<vehicle depart="59.48211729578832" route="r1" id="52" type="Bus"/>
<vehicle depart="60.37429910380123" route="r1" id="53" type="Car"/>
<vehicle depart="60.53711171192744" route="r1" id="54" type="Car"/>
<vehicle depart="60.627654074205125" route="r1" id="55" type="Car"/>
<vehicle depart="61.31718046739723" route="r1" id="56" type="Car"/>
<vehicle depart="61.53127459163373" route="r1" id="57" type="Car"/>
<vehicle depart="62.07268213868761" route="r1" id="58" type="Car"/>
<vehicle depart="62.410611448664824" route="r1" id="59" type="Bus"/>
<vehicle depart="63.31993547516701" route="r1" id="60" type="Car"/>
<vehicle depart="63.59412294403968" route="r1" id="61" type="Car"/>
<vehicle depart="64.11059129458822" route="r1" id="62" type="Car"/>
<vehicle depart="64.8496780393185" route="r1" id="63" type="Bus"/>
<vehicle depart="64.99512004749523" route="r1" id="64" type="Car"/>
<vehicle depart="66.06416854991906" route="r1" id="65" type="Car"/>
<vehicle depart="66.33452527698546" route="r1" id="66" type="Car"/>
<vehicle depart="67.53436380202571" route="r1" id="67" type="Bus"/>
<vehicle depart="69.77883769541609" route="r1" id="68" type="Car"/>
<vehicle depart="69.96902430543344" route="r1" id="69" type="Bus"/>
<vehicle depart="69.99427649190088" route="r1" id="70" type="Bus"/>
<vehicle depart="71.88754977552854" route="r1" id="71" type="Car"/>
<vehicle depart="72.15420667008834" route="r1" id="72" type="Bus"/>
<vehicle depart="72.60102375703214" route="r1" id="73" type="Bus"/>
<vehicle depart="72.6466722594148" route="r1" id="74" type="Bus"/>
<vehicle depart="73.40832860916147" route="r1" id="75" type="Car"/>
<vehicle depart="73.8849280659293" route="r1" id="76" type="Bus"/>
<vehicle depart="74.41708447442575" route="r1" id="77" type="Bus"/>
<vehicle depart="74.8922946496608" route="r1" id="78" type="Car"/>
<vehicle depart="75.06786090590424" route="r1" id="79" type="Bus"/>
<vehicle depart="75.83107095603485" route="r1" id="80" type="Bus"/>
<vehicle depart="76.16220555935188" route="r1" id="81" type="Car"/>
<vehicle depart="77.42695485620875" route="r1" id="82" type="Car"/>
<vehicle depart="79.05369133306615" route="r1" id="83" type="Bus"/>
<vehicle depart="79.78221537519124" route="r1" id="84" type="Car"/>
<vehicle depart="80.54691252071767" route="r1" id="85" type="Bus"/>
<vehicle depart="82.67910921434189" route="r1" id="86" type="Bus"/>
<vehicle depart="83.8939427753512" route="r1" id="87" type="Car"/>
<vehicle depart="84.36219380795391" route="r1" id="88" type="Bus"/>
<vehicle depart="86.39654230188314" route="r1" id="89" type="Bus"/>
<vehicle depart="86.53492488938424" route="r1" id="90" type="Car"/>
<vehicle depart="89.13095610845679" route="r1" id="91" type="Car"/>
<vehicle depart="89.5426375515176" route="r1" id="92" type="Bus"/>
<vehicle depart="89.58952012755287" route="r1" id="93" type="Car"/>
<vehicle depart="90.41895693541277" route="r1" id="94" type="Car"/>
<vehicle depart="90.96460626976557" route="r1" id="95" type="Car"/>
<vehicle depart="90.98984192264845" route="r1" id="96" type="Car"/>
<vehicle depart="93.33560883241606" route="r1" id="97" type="Bus"/>
<vehicle depart="93.60769670127164" route="r1" id="98" type="Bus"/>
<vehicle depart="95.16284490561712" route="r1" id="99" type="Car"/>
<vehicle depart="95.32411542879936" route="r1" id="100" type="Car"/>
<vehicle depart="95.7324262748595" route="r1" id="101" type="Car"/>
<vehicle depart="98.2316343120053" route="r1" id="102" type="Bus"/>
<vehicle depart="98.54162052217589" route="r1" id="103" type="Car"/>
<vehicle depart="99.18955410727615" route="r1" id="104" type="Car"/>
<vehicle depart="100.98342629265929" route="r1" id="105" type="Car"/>
<vehicle depart="104.7063998243653" route="r1" id="106" type="Car"/>
<vehicle depart="104.83119252737329" route="r1" id="107" type="Car"/>
<vehicle depart="105.07871306147086" route="r1" id="108" type="Car"/>
<vehicle depart="105.46724160051842" route="r1" id="109" type="Car"/>
<vehicle depart="109.29612087160525" route="r1" id="110" type="Car"/>
<vehicle depart="113.6093531949208" route="r1" id="111" type="Car"/>
<vehicle depart="115.87858842072775" route="r1" id="112" type="Car"/>
<vehicle depart="117.98607655817526" route="r1" id="113" type="Bus"/>
<vehicle depart="118.67518458513467" route="r1" id="114" type="Car"/>
<vehicle depart="119.02192434674342" route="r1" id="115" type="Car"/>
<vehicle depart="120.74925489237846" route="r1" id="116" type="Bus"/>
<vehicle depart="124.07292331915367" route="r1" id="117" type="Car"/>
<vehicle depart="124.32479475549104" route="r1" id="118" type="Bus"/>
<vehicle depart="125.67233402242981" route="r1" id="119" type="Car"/>
<vehicle depart="125.75539351116238" route="r1" id="120" type="Car"/>
<vehicle depart="126.45179654439022" route="r1" id="121" type="Car"/>
<vehicle depart="127.57400800635311" route="r1" id="122" type="Car"/>
<vehicle depart="129.7486280120573" route="r1" id="123" type="Car"/>
<vehicle depart="131.26130120018385" route="r1" id="124" type="Car"/>
<vehicle depart="132.2471002489058" route="r1" id="125" type="Car"/>
<vehicle depart="134.81551300121998" route="r1" id="126" type="Car"/>
<vehicle depart="135.5120879284974" route="r1" id="127" type="Bus"/>
<vehicle depart="136.35493005903894" route="r1" id="128" type="Car"/>
<vehicle depart="136.6541518009822" route="r1" id="129" type="Bus"/>
<vehicle depart="136.96305890987122" route="r1" id="130" type="Car"/>
<vehicle depart="137.58257806356346" route="r1" id="131" type="Bus"/>
<vehicle depart="139.82236254772627" route="r1" id="132" type="Car"/>
<vehicle depart="141.19630288653534" route="r1" id="133" type="Bus"/>
<vehicle depart="141.20052781093736" route="r1" id="134" type="Bus"/>
<vehicle depart="142.02842454259897" route="r1" id="135" type="Car"/>
<vehicle depart="142.429027644271" route="r1" id="136" type="Car"/>
<vehicle depart="143.00629629993813" route="r1" id="137" type="Car"/>
<vehicle depart="146.10911206153918" route="r1" id="138" type="Car"/>
<vehicle depart="146.13625734303423" route="r1" id="139" type="Car"/>
<vehicle depart="146.39981851318822" route="r1" id="140" type="Car"/>
<vehicle depart="150.6195613005528" route="r1" id="141" type="Car"/>
<vehicle depart="152.35956588846346" route="r1" id="142" type="Car"/>
<vehicle depart="154.39689458517157" route="r1" id="143" type="Car"/>
<vehicle depart="154.6021427167049" route="r1" id="144" type="Car"/>
<vehicle depart="155.8965996603682" route="r1" id="145" type="Bus"/>
<vehicle depart="155.96250751725827" route="r1" id="146" type="Car"/>
<vehicle depart="156.16473485285334" route="r1" id="147" type="Car"/>
<vehicle depart="157.36820982594855" route="r1" id="148" type="Car"/>
<vehicle depart="157.51714416565073" route="r1" id="149" type="Car"/>
<vehicle depart="158.35678240608888" route="r1" id="150" type="Car"/>
<vehicle depart="160.43325924058738" route="r1" id="151" type="Car"/>
<vehicle depart="166.25905582677797" route="r1" id="152" type="Car"/>
<vehicle depart="166.51037084267742" route="r1" id="153" type="Car"/>
<vehicle depart="169.07792938394766" route="r1" id="154" type="Car"/>
<vehicle depart="170.74834939629693" route="r1" id="155" type="Car"/>
<vehicle depart="172.13900727196923" route="r1" id="156" type="Car"/>
<vehicle depart="172.15791396675274" route="r1" id="157" type="Car"/>
<vehicle depart="172.92470461832292" route="r1" id="158" type="Bus"/>
<vehicle depart="174.22122302610816" route="r1" id="159" type="Car"/>
<vehicle depart="174.28209502770903" route="r1" id="160" type="Car"/>
<vehicle depart="174.68108875935232" route="r1" id="161" type="Car"/>
<vehicle depart="176.72773137691433" route="r1" id="162" type="Car"/>
<vehicle depart="178.00655922244445" route="r1" id="163" type="Car"/>
<vehicle depart="178.756381280378" route="r1" id="164" type="Bus"/>
<vehicle depart="179.14219721990057" route="r1" id="165" type="Car"/>
<vehicle depart="180.35565868888514" route="r1" id="166" type="Car"/>
<vehicle depart="181.60306089594883" route="r1" id="167" type="Car"/>
<vehicle depart="181.60988757197057" route="r1" id="168" type="Car"/>
<vehicle depart="182.2798130041768" route="r1" id="169" type="Car"/>
<vehicle depart="185.6229912819525" route="r1" id="170" type="Bus"/>
<vehicle depart="187.55294434167843" route="r1" id="171" type="Bus"/>
<vehicle depart="187.5980337790837" route="r1" id="172" type="Car"/>
<vehicle depart="188.8535517913422" route="r1" id="173" type="Bus"/>
<vehicle depart="188.8564044235702" route="r1" id="174" type="Bus"/>
<vehicle depart="188.92592173730293" route="r1" id="175" type="Bus"/>
<vehicle depart="193.22311757319468" route="r1" id="176" type="Car"/>
<vehicle depart="193.3915279065023" route="r1" id="177" type="Car"/>
<vehicle depart="196.0687950924476" route="r1" id="178" type="Car"/>
<vehicle depart="197.07053384907698" route="r1" id="179" type="Car"/>
<vehicle depart="198.2749603497954" route="r1" id="180" type="Bus"/>
<vehicle depart="199.0155519861082" route="r1" id="181" type="Car"/>
<vehicle depart="199.3592808370372" route="r1" id="182" type="Car"/>
<vehicle depart="200.25675061400656" route="r1" id="183" type="Bus"/>
<vehicle depart="200.7595700349024" route="r1" id="184" type="Car"/>
<vehicle depart="202.2164057244989" route="r1" id="185" type="Car"/>
<vehicle depart="202.99861626151457" route="r1" id="186" type="Bus"/>
<vehicle depart="204.38005835764994" route="r1" id="187" type="Car"/>
<vehicle depart="206.07325942081405" route="r1" id="188" type="Car"/>
<vehicle depart="209.23855831455992" route="r1" id="189" type="Car"/>
<vehicle depart="210.4637734949807" route="r1" id="190" type="Car"/>
<vehicle depart="210.95111276125158" route="r1" id="191" type="Car"/>
<vehicle depart="211.12783872629427" route="r1" id="192" type="Bus"/>
<vehicle depart="214.23344816986378" route="r1" id="193" type="Car"/>
<vehicle depart="214.95990395123368" route="r1" id="194" type="Car"/>
<vehicle depart="215.39083603807026" route="r1" id="195" type="Bus"/>
<vehicle depart="216.16659439541226" route="r1" id="196" type="Car"/>
<vehicle depart="217.34522144687188" route="r1" id="197" type="Car"/>
<vehicle depart="219.1424416446429" route="r1" id="198" type="Car"/>
<vehicle depart="219.68692573337242" route="r1" id="199" type="Car"/>
<vehicle depart="219.84883864304894" route="r1" id="200" type="Car"/>
<vehicle depart="221.16711177013812" route="r1" id="201" type="Bus"/>
<vehicle depart="222.90019165862338" route="r1" id="202" type="Car"/>
<vehicle depart="228.0820945274074" route="r1" id="203" type="Car"/>
<vehicle depart="228.2130954823877" route="r1" id="204" type="Car"/>
<vehicle depart="229.02623669049302" route="r1" id="205" type="Bus"/>
<vehicle depart="230.6713050199847" route="r1" id="206" type="Car"/>
<vehicle depart="231.1471448296363" route="r1" id="207" type="Car"/>
<vehicle depart="231.93639983293528" route="r1" id="208" type="Bus"/>
<vehicle depart="235.16481166625715" route="r1" id="209" type="Car"/>
<vehicle depart="235.26454360369166" route="r1" id="210" type="Bus"/>
<vehicle depart="235.3686501005952" route="r1" id="211" type="Car"/>
<vehicle depart="235.94239335873655" route="r1" id="212" type="Car"/>
<vehicle depart="238.97640244124221" route="r1" id="213" type="Car"/>
<vehicle depart="240.5390245746443" route="r1" id="214" type="Car"/>
<vehicle depart="241.09988969142472" route="r1" id="215" type="Bus"/>
<vehicle depart="243.43652441824642" route="r1" id="216" type="Car"/>
<vehicle depart="245.2004503289852" route="r1" id="217" type="Bus"/>
<vehicle depart="246.17636865359054" route="r1" id="218" type="Car"/>
<vehicle depart="247.24993205393164" route="r1" id="219" type="Car"/>
<vehicle depart="247.96763360617652" route="r1" id="220" type="Bus"/>
<vehicle depart="248.87194108220237" route="r1" id="221" type="Car"/>
<vehicle depart="250.8976488709791" route="r1" id="222" type="Car"/>
<vehicle depart="251.8095905844069" route="r1" id="223" type="Car"/>
<vehicle depart="252.26713586015393" route="r1" id="224" type="Car"/>
<vehicle depart="252.46066946090065" route="r1" id="225" type="Bus"/>
<vehicle depart="252.72871125597464" route="r1" id="226" type="Car"/>
<vehicle depart="252.96646091493557" route="r1" id="227" type="Car"/>
<vehicle depart="253.12918598267163" route="r1" id="228" type="Car"/>
<vehicle depart="254.8445978121507" route="r1" id="229" type="Bus"/>
<vehicle depart="255.140780024363" route="r1" id="230" type="Car"/>
<vehicle depart="256.31382277132167" route="r1" id="231" type="Car"/>
<vehicle depart="259.649479192016" route="r1" id="232" type="Car"/>
<vehicle depart="260.81339896718777" route="r1" id="233" type="Car"/>
<vehicle depart="261.57331680330464" route="r1" id="234" type="Car"/>
<vehicle depart="261.6544932337923" route="r1" id="235" type="Car"/>
<vehicle depart="263.5089664870129" route="r1" id="236" type="Car"/>
<vehicle depart="264.48773567328914" route="r1" id="237" type="Car"/>
<vehicle depart="264.50880974528104" route="r1" id="238" type="Car"/>
<vehicle depart="265.0817042522523" route="r1" id="239" type="Bus"/>
<vehicle depart="265.15074112242564" route="r1" id="240" type="Car"/>
<vehicle depart="265.3393442865232" route="r1" id="241" type="Car"/>
<vehicle depart="265.3894958519077" route="r1" id="242" type="Car"/>
<vehicle depart="265.7486012581155" route="r1" id="243" type="Car"/>
<vehicle depart="267.83087427248483" route="r1" id="244" type="Car"/>
<vehicle depart="269.3796837956537" route="r1" id="245" type="Car"/>
<vehicle depart="271.5328271281635" route="r1" id="246" type="Car"/>
<vehicle depart="272.1234356403129" route="r1" id="247" type="Car"/>
<vehicle depart="272.20253657746906" route="r1" id="248" type="Bus"/>
<vehicle depart="276.11840493801765" route="r1" id="249" type="Bus"/>
<vehicle depart="276.5678828943551" route="r1" id="250" type="Bus"/>
<vehicle depart="277.6188707794685" route="r1" id="251" type="Bus"/>
<vehicle depart="278.5073823684923" route="r1" id="252" type="Car"/>
<vehicle depart="281.27041785385654" route="r1" id="253" type="Car"/>
<vehicle depart="282.5931759146477" route="r1" id="254" type="Car"/>
<vehicle depart="282.69193913980877" route="r1" id="255" type="Car"/>
<vehicle depart="284.99929618921794" route="r1" id="256" type="Car"/>
<vehicle depart="285.22191510593984" route="r1" id="257" type="Car"/>
<vehicle depart="286.86999893622357" route="r1" id="258" type="Car"/>
<vehicle depart="287.0632917504854" route="r1" id="259" type="Car"/>
<vehicle depart="288.6571521579338" route="r1" id="260" type="Car"/>
<vehicle depart="289.11779344724397" route="r1" id="261" type="Bus"/>
<vehicle depart="289.9708020675886" route="r1" id="262" type="Car"/>
<vehicle depart="294.16584597016606" route="r1" id="263" type="Car"/>
<vehicle depart="296.07107698091653" route="r1" id="264" type="Bus"/>
<vehicle depart="299.4871086017223" route="r1" id="265" type="Car"/>
<vehicle depart="301.2755073752379" route="r1" id="266" type="Car"/>
<vehicle depart="301.6797674898631" route="r1" id="267" type="Bus"/>
<vehicle depart="301.815395029157" route="r1" id="268" type="Car"/>
<vehicle depart="302.0104654591634" route="r1" id="269" type="Car"/>
<vehicle depart="303.8150658807086" route="r1" id="270" type="Bus"/>
<vehicle depart="305.11865921448833" route="r1" id="271" type="Car"/>
<vehicle depart="305.7688396796972" route="r1" id="272" type="Car"/>
<vehicle depart="305.9729554275036" route="r1" id="273" type="Car"/>
<vehicle depart="307.73720081536607" route="r1" id="274" type="Car"/>
<vehicle depart="307.9620617778746" route="r1" id="275" type="Bus"/>
<vehicle depart="308.2774622713192" route="r1" id="276" type="Car"/>
<vehicle depart="308.4168582597956" route="r1" id="277" type="Car"/>
<vehicle depart="312.6230015265503" route="r1" id="278" type="Car"/>
<vehicle depart="313.65802800420516" route="r1" id="279" type="Car"/>
<vehicle depart="316.72783130368805" route="r1" id="280" type="Car"/>
<vehicle depart="319.54484639300784" route="r1" id="281" type="Car"/>
<vehicle depart="321.4997105970567" route="r1" id="282" type="Bus"/>
<vehicle depart="321.9065908690103" route="r1" id="283" type="Bus"/>
<vehicle depart="321.9083808966481" route="r1" id="284" type="Car"/>
<vehicle depart="324.5883904519274" route="r1" id="285" type="Bus"/>
<vehicle depart="325.23313265068236" route="r1" id="286" type="Bus"/>
<vehicle depart="327.063878406826" route="r1" id="287" type="Car"/>
<vehicle depart="328.2212733287064" route="r1" id="288" type="Bus"/>
<vehicle depart="330.649469985672" route="r1" id="289" type="Bus"/>
<vehicle depart="330.75800333333535" route="r1" id="290" type="Car"/>
<vehicle depart="331.77351962811036" route="r1" id="291" type="Car"/>
<vehicle depart="332.1223630175126" route="r1" id="292" type="Car"/>
<vehicle depart="333.0457616175741" route="r1" id="293" type="Bus"/>
<vehicle depart="333.97122851215477" route="r1" id="294" type="Car"/>
<vehicle depart="335.80199285794856" route="r1" id="295" type="Car"/>
<vehicle depart="336.6255690368043" route="r1" id="296" type="Bus"/>
<vehicle depart="337.04634953788667" route="r1" id="297" type="Bus"/>
<vehicle depart="337.4942687333421" route="r1" id="298" type="Car"/>
<vehicle depart="338.90012903658516" route="r1" id="299" type="Bus"/>
<vehicle depart="340.1541293316555" route="r1" id="300" type="Car"/>
<vehicle depart="340.34875048648667" route="r1" id="301" type="Bus"/>
<vehicle depart="340.4920055475253" route="r1" id="302" type="Car"/>
<vehicle depart="340.94235598517713" route="r1" id="303" type="Car"/>
<vehicle depart="342.1226394911439" route="r1" id="304" type="Car"/>
<vehicle depart="342.1362026099872" route="r1" id="305" type="Car"/>
<vehicle depart="342.96165150630185" route="r1" id="306" type="Car"/>
<vehicle depart="343.3700996497667" route="r1" id="307" type="Car"/>
<vehicle depart="346.46527130051385" route="r1" id="308" type="Car"/>
<vehicle depart="348.5546501278613" route="r1" id="309" type="Bus"/>
<vehicle depart="349.7325123429774" route="r1" id="310" type="Bus"/>
<vehicle depart="350.91018428059004" route="r1" id="311" type="Bus"/>
<vehicle depart="353.8622917595441" route="r1" id="312" type="Car"/>
<vehicle depart="354.20540384692305" route="r1" id="313" type="Bus"/>
<vehicle depart="355.5210557576852" route="r1" id="314" type="Car"/>
<vehicle depart="357.11944670366944" route="r1" id="315" type="Car"/>
<vehicle depart="361.7837954943685" route="r1" id="316" type="Car"/>
<vehicle depart="362.95647184592804" route="r1" id="317" type="Car"/>
<vehicle depart="363.288050802088" route="r1" id="318" type="Car"/>
<vehicle depart="365.12415218826783" route="r1" id="319" type="Car"/>
<vehicle depart="366.43584928993414" route="r1" id="320" type="Car"/>
<vehicle depart="366.68243071496715" route="r1" id="321" type="Bus"/>
<vehicle depart="368.82976743611937" route="r1" id="322" type="Car"/>
<vehicle depart="370.3933457817422" route="r1" id="323" type="Bus"/>
<vehicle depart="371.1231294827313" route="r1" id="324" type="Car"/>
<vehicle depart="371.6121431508445" route="r1" id="325" type="Bus"/>
<vehicle depart="372.12187029042025" route="r1" id="326" type="Car"/>
<vehicle depart="372.90904390042255" route="r1" id="327" type="Car"/>
<vehicle depart="373.9942361097718" route="r1" id="328" type="Bus"/>
<vehicle depart="381.08222587466673" route="r1" id="329" type="Car"/>
<vehicle depart="381.14121445428816" route="r1" id="330" type="Car"/>
<vehicle depart="381.2445930633241" route="r1" id="331" type="Car"/>
<vehicle depart="384.3634678412797" route="r1" id="332" type="Bus"/>
<vehicle depart="385.21973077370797" route="r1" id="333" type="Car"/>
<vehicle depart="385.4882044022751" route="r1" id="334" type="Car"/>
<vehicle depart="387.02602354522554" route="r1" id="335" type="Car"/>
<vehicle depart="387.0737933276933" route="r1" id="336" type="Bus"/>
<vehicle depart="387.5630004707196" route="r1" id="337" type="Car"/>
<vehicle depart="388.2374107662827" route="r1" id="338" type="Car"/>
<vehicle depart="388.8284333929203" route="r1" id="339" type="Car"/>
<vehicle depart="392.0178415104899" route="r1" id="340" type="Bus"/>
<vehicle depart="392.5636917392527" route="r1" id="341" type="Car"/>
<vehicle depart="393.41352077172" route="r1" id="342" type="Bus"/>
<vehicle depart="394.27642076249106" route="r1" id="343" type="Bus"/>
<vehicle depart="398.6005981267099" route="r1" id="344" type="Car"/>
<vehicle depart="399.6298850116973" route="r1" id="345" type="Car"/>
<vehicle depart="399.6975308013733" route="r1" id="346" type="Car"/>
<vehicle depart="401.68233641231456" route="r1" id="347" type="Car"/>
<vehicle depart="402.41636274166865" route="r1" id="348" type="Car"/>
<vehicle depart="403.87111317418334" route="r1" id="349" type="Car"/>
<vehicle depart="405.3433471164563" route="r1" id="350" type="Bus"/>
<vehicle depart="405.60732309970433" route="r1" id="351" type="Car"/>
<vehicle depart="405.88793704387797" route="r1" id="352" type="Bus"/>
<vehicle depart="406.0813539680205" route="r1" id="353" type="Bus"/>
<vehicle depart="406.79827616787566" route="r1" id="354" type="Bus"/>
<vehicle depart="407.402678724975" route="r1" id="355" type="Bus"/>
<vehicle depart="407.47650225822423" route="r1" id="356" type="Bus"/>
<vehicle depart="409.16277189184063" route="r1" id="357" type="Car"/>
<vehicle depart="410.1728559118609" route="r1" id="358" type="Bus"/>
<vehicle depart="411.0593946772754" route="r1" id="359" type="Car"/>
<vehicle depart="414.0340475624402" route="r1" id="360" type="Car"/>
<vehicle depart="415.1832107465315" route="r1" id="361" type="Bus"/>
<vehicle depart="416.15426703216133" route="r1" id="362" type="Car"/>
<vehicle depart="416.42226402334927" route="r1" id="363" type="Car"/>
<vehicle depart="417.46744332147733" route="r1" id="364" type="Bus"/>
<vehicle depart="419.0267398096636" route="r1" id="365" type="Bus"/>
<vehicle depart="419.2178868545054" route="r1" id="366" type="Bus"/>
<vehicle depart="419.8028420033271" route="r1" id="367" type="Car"/>
<vehicle depart="419.86478828400334" route="r1" id="368" type="Car"/>
<vehicle depart="419.9435658860312" route="r1" id="369" type="Bus"/>
<vehicle depart="425.1312595430115" route="r1" id="370" type="Car"/>
<vehicle depart="425.35870270006006" route="r1" id="371" type="Car"/>
<vehicle depart="427.80856640815887" route="r1" id="372" type="Car"/>
<vehicle depart="428.0037948547733" route="r1" id="373" type="Bus"/>
<vehicle depart="428.1966197392881" route="r1" id="374" type="Car"/>
<vehicle depart="428.62541839755625" route="r1" id="375" type="Bus"/>
<vehicle depart="429.4042285048859" route="r1" id="376" type="Car"/>
<vehicle depart="429.52277717013396" route="r1" id="377" type="Car"/>
<vehicle depart="430.07220355727264" route="r1" id="378" type="Car"/>
<vehicle depart="433.192588259697" route="r1" id="379" type="Bus"/>
<vehicle depart="437.6387255868769" route="r1" id="380" type="Car"/>
<vehicle depart="438.2751832600666" route="r1" id="381" type="Car"/>
<vehicle depart="440.5705511018242" route="r1" id="382" type="Car"/>
<vehicle depart="441.69324068281384" route="r1" id="383" type="Car"/>
<vehicle depart="442.32094531637733" route="r1" id="384" type="Bus"/>
<vehicle depart="442.6524918296813" route="r1" id="385" type="Bus"/>
<vehicle depart="446.5272223962789" route="r1" id="386" type="Car"/>
<vehicle depart="447.5553793632323" route="r1" id="387" type="Car"/>
<vehicle depart="447.6498746078713" route="r1" id="388" type="Car"/>
<vehicle depart="453.20012055429567" route="r1" id="389" type="Car"/>
<vehicle depart="453.2587981963449" route="r1" id="390" type="Bus"/>
<vehicle depart="454.08495788930423" route="r1" id="391" type="Car"/>
<vehicle depart="456.748219371499" route="r1" id="392" type="Car"/>
<vehicle depart="456.9117840439336" route="r1" id="393" type="Car"/>
<vehicle depart="459.57722603339334" route="r1" id="394" type="Car"/>
<vehicle depart="459.6550026818532" route="r1" id="395" type="Car"/>
<vehicle depart="462.11000452242854" route="r1" id="396" type="Bus"/>
<vehicle depart="462.9218206544549" route="r1" id="397" type="Car"/>
<vehicle depart="463.00361902561855" route="r1" id="398" type="Bus"/>
<vehicle depart="463.1171467670885" route="r1" id="399" type="Car"/>
<vehicle depart="464.00581252530117" route="r1" id="400" type="Bus"/>
<vehicle depart="465.62973590779023" route="r1" id="401" type="Car"/>
<vehicle depart="466.2279842312609" route="r1" id="402" type="Car"/>
<vehicle depart="468.5988398238154" route="r1" id="403" type="Bus"/>
<vehicle depart="472.70667134792296" route="r1" id="404" type="Bus"/>
<vehicle depart="472.71195865928667" route="r1" id="405" type="Bus"/>
<vehicle depart="473.6971696703818" route="r1" id="406" type="Bus"/>
<vehicle depart="475.41278759808455" route="r1" id="407" type="Car"/>
<vehicle depart="479.36999545294964" route="r1" id="408" type="Car"/>
<vehicle depart="483.1148269205036" route="r1" id="409" type="Car"/>
<vehicle depart="483.28658938581225" route="r1" id="410" type="Car"/>
<vehicle depart="485.60185581283986" route="r1" id="411" type="Car"/>
<vehicle depart="486.2849211219174" route="r1" id="412" type="Car"/>
<vehicle depart="488.3393772506553" route="r1" id="413" type="Car"/>
<vehicle depart="489.73860860477976" route="r1" id="414" type="Car"/>
<vehicle depart="489.83687523950675" route="r1" id="415" type="Bus"/>
<vehicle depart="490.0960062709261" route="r1" id="416" type="Car"/>
<vehicle depart="491.04773544063687" route="r1" id="417" type="Car"/>
<vehicle depart="493.4700277685159" route="r1" id="418" type="Car"/>
<vehicle depart="495.06783066657954" route="r1" id="419" type="Car"/>
<vehicle depart="495.5599834148665" route="r1" id="420" type="Car"/>
<vehicle depart="499.1767970705395" route="r1" id="421" type="Car"/>
<vehicle depart="499.9956688698119" route="r1" id="422" type="Bus"/>